pcf
* control data
             restart          estimation
        24      5110        24         0         2
         1         1              single               point
   2.000000E+01  -3.000000E+00   3.000000E-01   1.000000E-02        -7
   1.000000E+01   1.000000E+01   1.000000E-03
   1.000000E-01
        -1   1.000000E-02         3         3   1.000000E-02         3
         0         0         0
* singular value decomposition
         1
  10000000    1.000000E-06
1
* parameter groups
alpha_p_gp             relative              1.0000000000E-01      0.0 switch                1.0000000000E+00      parabolic             1.0000000000E-05      5.0000000000E-01      smaller              
alpha_m_gp             relative              1.0000000000E-01      0.0 switch                1.0000000000E+00      parabolic             1.0000000000E-05      5.0000000000E-01      smaller              
n_p_gp                 relative              1.0000000000E-01      0.0 switch                1.0000000000E+00      parabolic             1.0000000000E-05      5.0000000000E-01      smaller              
n_m_gp                 relative              1.0000000000E-01      0.0 switch                1.0000000000E+00      parabolic             1.0000000000E-05      5.0000000000E-01      smaller              
wr_p_gp                relative              1.0000000000E-01      0.0 switch                1.0000000000E+00      parabolic             1.0000000000E-05      5.0000000000E-01      smaller              
wr_m_gp                relative              1.0000000000E-01      0.0 switch                1.0000000000E+00      parabolic             1.0000000000E-05      5.0000000000E-01      smaller              
tcs_p_gp               relative              1.0000000000E-01      0.0 switch                1.0000000000E+00      parabolic             1.0000000000E-05      5.0000000000E-01      smaller              
tcs_m_gp               relative              1.0000000000E-01      0.0 switch                1.0000000000E+00      parabolic             1.0000000000E-05      5.0000000000E-01      smaller              
tcd_p_gp               relative              1.0000000000E-01      0.0 switch                1.0000000000E+00      parabolic             1.0000000000E-05      5.0000000000E-01      smaller              
tcd_m_gp               relative              1.0000000000E-01      0.0 switch                1.0000000000E+00      parabolic             1.0000000000E-05      5.0000000000E-01      smaller              
af_p_gp                relative              1.0000000000E-01      0.0 switch                1.0000000000E+00      parabolic             1.0000000000E-05      5.0000000000E-01      smaller              
af_m_gp                relative              1.0000000000E-01      0.0 switch                1.0000000000E+00      parabolic             1.0000000000E-05      5.0000000000E-01      smaller              
auf_p_gp               relative              1.0000000000E-01      0.0 switch                1.0000000000E+00      parabolic             1.0000000000E-05      5.0000000000E-01      smaller              
auf_m_gp               relative              1.0000000000E-01      0.0 switch                1.0000000000E+00      parabolic             1.0000000000E-05      5.0000000000E-01      smaller              
por_p_gp               relative              1.0000000000E-01      0.0 switch                1.0000000000E+00      parabolic             1.0000000000E-05      5.0000000000E-01      smaller              
por_m_gp               relative              1.0000000000E-01      0.0 switch                1.0000000000E+00      parabolic             1.0000000000E-05      5.0000000000E-01      smaller              
perm_p_gp              relative              1.0000000000E-01      0.0 switch                1.0000000000E+00      parabolic             1.0000000000E-05      5.0000000000E-01      smaller              
perm_m_gp              relative              1.0000000000E-01      0.0 switch                1.0000000000E+00      parabolic             1.0000000000E-05      5.0000000000E-01      smaller              
den_p_gp               relative              1.0000000000E-01      0.0 switch                1.0000000000E+00      parabolic             1.0000000000E-05      5.0000000000E-01      smaller              
den_m_gp               relative              1.0000000000E-01      0.0 switch                1.0000000000E+00      parabolic             1.0000000000E-05      5.0000000000E-01      smaller              
hc_l_gp                relative              1.0000000000E-01      0.0 switch                1.0000000000E+00      parabolic             1.0000000000E-05      5.0000000000E-01      smaller              
hc_r_gp                relative              1.0000000000E-01      0.0 switch                1.0000000000E+00      parabolic             1.0000000000E-05      5.0000000000E-01      smaller              
lh_w_gp                relative              1.0000000000E-01      0.0 switch                1.0000000000E+00      parabolic             1.0000000000E-05      5.0000000000E-01      smaller              
lh_i_gp                relative              1.0000000000E-01      0.0 switch                1.0000000000E+00      parabolic             1.0000000000E-05      5.0000000000E-01      smaller              
* parameter data
alpha_p               none                  factor                1.0000000000E-02      5.0000000000E-03      1.5000000000E-02      alpha_p_gp            1.0000000000E+00      0.0000000000E+00                
alpha_m               none                  factor                1.8249143534E-03      9.1245717672E-04      2.7373715302E-03      alpha_m_gp            1.0000000000E+00      0.0000000000E+00               
n_p                   none                  factor                2.0500000000E+00      1.0250000000E+00      3.0750000000E+00      n_p_gp                1.0000000000E+00      0.0000000000E+00                
n_m                   none                  factor                2.0500000000E+00      1.0250000000E+00      3.0750000000E+00      n_m_gp                1.0000000000E+00      0.0000000000E+00                
wr_p                  none                  factor                2.2432414346E-01      1.1216207173E-01      3.3648621519E-01      wr_p_gp               1.0000000000E+00      0.0000000000E+00                
wr_m                  none                  factor                1.5948806481E-01      7.9744032406E-02      2.3923209722E-01      wr_m_gp               1.0000000000E+00      0.0000000000E+00                
tcs_p                 none                  factor                4.3957660837E-01      2.1978830418E-01      6.5936491255E-01      tcs_p_gp              1.0000000000E+00      0.0000000000E+00                
tcs_m                 none                  factor                9.5210506403E-01      4.7605253201E-01      1.4281575960E+00      tcs_m_gp              1.0000000000E+00      0.0000000000E+00                
tcd_p                 none                  factor                1.0102340592E-01      5.0511702960E-02      1.5153510888E-01      tcd_p_gp              1.0000000000E+00      0.0000000000E+00                
tcd_m                 none                  factor                9.8440542895E-01      4.9220271447E-01      1.4766081434E+00      tcd_m_gp              1.0000000000E+00      0.0000000000E+00                
af_p                  none                  factor                1.5051141504E+00      7.5255707520E-01      2.2576712256E+00      af_p_gp               1.0000000000E+00      0.0000000000E+00                
af_m                  none                  factor                1.4993891283E+00      7.4969456415E-01      2.2490836925E+00      af_m_gp               1.0000000000E+00      0.0000000000E+00                
auf_p                 none                  factor                4.8693541309E-01      2.4346770655E-01      7.3040311964E-01      auf_p_gp              1.0000000000E+00      0.0000000000E+00                
auf_m                 none                  factor                6.9888402864E-01      3.4944201432E-01      1.0483260430E+00      auf_m_gp              1.0000000000E+00      0.0000000000E+00                
por_p                 none                  factor                6.3739495707E-01      3.1869747854E-01      9.5609243561E-01      por_p_gp              1.0000000000E+00      0.0000000000E+00                
por_m                 none                  factor                4.8103076529E-01      2.4051538265E-01      7.2154614794E-01      por_m_gp              1.0000000000E+00      0.0000000000E+00                
perm_p                none                  factor                5.3466221272E-11      2.6733110636E-11      8.0199331908E-11      perm_p_gp             1.0000000000E+00      0.0000000000E+00                
perm_m                none                  factor                1.0000000000E-13      5.0000000000E-14      1.5000000000E-13      perm_m_gp             1.0000000000E+00      0.0000000000E+00                
den_p                 none                  factor                9.0000000000E+02      4.5000000000E+02      1.3500000000E+03      den_p_gp              1.0000000000E+00      0.0000000000E+00                
den_m                 none                  factor                1.9000000000E+03      9.5000000000E+02      2.8500000000E+03      den_m_gp              1.0000000000E+00      0.0000000000E+00                
lh_w                  none                  factor                3.3400000000E+05      1.6700000000E+05      5.0100000000E+05      hc_l_gp               1.0000000000E+00      0.0000000000E+00                
lh_i                  none                  factor                -6.0078700000E+03     -9.0118050000E+03     -3.0039350000E+03     hc_r_gp               1.0000000000E+00      0.0000000000E+00                
hc_l                  none                  factor                7.6000000000E+01      3.8000000000E+01      1.1400000000E+02      lh_w_gp               1.0000000000E+00      0.0000000000E+00                
hc_r                  none                  factor                6.2000000000E+02      3.1000000000E+02      9.3000000000E+02      lh_i_gp               1.0000000000E+00      0.0000000000E+00                
* observation groups
temp                 
mois                 
* observation data
stemp_0.04_0          2.6102326389E+02      1.9569471624E-04      temp                 
stemp_0.04_1          2.6100666667E+02      1.9569471624E-04      temp                 
stemp_0.04_2          2.6085486111E+02      1.9569471624E-04      temp                 
stemp_0.04_3          2.6103270833E+02      1.9569471624E-04      temp                 
stemp_0.04_4          2.6134701389E+02      1.9569471624E-04      temp                 
stemp_0.04_5          2.6108062500E+02      1.9569471624E-04      temp                 
stemp_0.04_6          2.6118250000E+02      1.9569471624E-04      temp                 
stemp_0.04_7          2.6061652778E+02      1.9569471624E-04      temp                 
stemp_0.04_8          2.6005826389E+02      1.9569471624E-04      temp                 
stemp_0.04_9          2.6068041667E+02      1.9569471624E-04      temp                 
stemp_0.04_10         2.5940020833E+02      1.9569471624E-04      temp                 
stemp_0.04_11         2.5808736111E+02      1.9569471624E-04      temp                 
stemp_0.04_12         2.5846638889E+02      1.9569471624E-04      temp                 
stemp_0.04_13         2.5847388889E+02      1.9569471624E-04      temp                 
stemp_0.04_14         2.5846555556E+02      1.9569471624E-04      temp                 
stemp_0.04_15         2.5724750000E+02      1.9569471624E-04      temp                 
stemp_0.04_16         2.5688069444E+02      1.9569471624E-04      temp                 
stemp_0.04_17         2.5728326389E+02      1.9569471624E-04      temp                 
stemp_0.04_18         2.5677284722E+02      1.9569471624E-04      temp                 
stemp_0.04_19         2.5715430556E+02      1.9569471624E-04      temp                 
stemp_0.04_20         2.5779034722E+02      1.9569471624E-04      temp                 
stemp_0.04_21         2.5860034722E+02      1.9569471624E-04      temp                 
stemp_0.04_22         2.5916305556E+02      1.9569471624E-04      temp                 
stemp_0.04_23         2.6000541667E+02      1.9569471624E-04      temp                 
stemp_0.04_24         2.6142319444E+02      1.9569471624E-04      temp                 
stemp_0.04_25         2.6238886806E+02      1.9569471624E-04      temp                 
stemp_0.04_26         2.6283889583E+02      1.9569471624E-04      temp                 
stemp_0.04_27         2.6305069444E+02      1.9569471624E-04      temp                 
stemp_0.04_28         2.6194090278E+02      1.9569471624E-04      temp                 
stemp_0.04_29         2.6101208333E+02      1.9569471624E-04      temp                 
stemp_0.04_30         2.6034104167E+02      1.9569471624E-04      temp                 
stemp_0.04_31         2.6011833333E+02      1.9569471624E-04      temp                 
stemp_0.04_32         2.6120944444E+02      1.9569471624E-04      temp                 
stemp_0.04_33         2.6212306250E+02      1.9569471624E-04      temp                 
stemp_0.04_34         2.6382234028E+02      1.9569471624E-04      temp                 
stemp_0.04_35         2.6491457639E+02      1.9569471624E-04      temp                 
stemp_0.04_36         2.6524615972E+02      1.9569471624E-04      temp                 
stemp_0.04_37         2.6206125000E+02      1.9569471624E-04      temp                 
stemp_0.04_38         2.6095784722E+02      1.9569471624E-04      temp                 
stemp_0.04_39         2.6021527778E+02      1.9569471624E-04      temp                 
stemp_0.04_40         2.5958729167E+02      1.9569471624E-04      temp                 
stemp_0.04_41         2.5922576389E+02      1.9569471624E-04      temp                 
stemp_0.04_42         2.5944013889E+02      1.9569471624E-04      temp                 
stemp_0.04_43         2.6010847222E+02      1.9569471624E-04      temp                 
stemp_0.04_44         2.6018229167E+02      1.9569471624E-04      temp                 
stemp_0.04_45         2.6128201389E+02      1.9569471624E-04      temp                 
stemp_0.04_46         2.6218708333E+02      1.9569471624E-04      temp                 
stemp_0.04_47         2.6271927083E+02      1.9569471624E-04      temp                 
stemp_0.04_48         2.6377281250E+02      1.9569471624E-04      temp                 
stemp_0.04_49         2.6548983333E+02      1.9569471624E-04      temp                 
stemp_0.04_50         2.6672193750E+02      1.9569471624E-04      temp                 
stemp_0.04_51         2.6555454167E+02      1.9569471624E-04      temp                 
stemp_0.04_52         2.6436368056E+02      1.9569471624E-04      temp                 
stemp_0.04_53         2.6342159722E+02      1.9569471624E-04      temp                 
stemp_0.04_54         2.6319118056E+02      1.9569471624E-04      temp                 
stemp_0.04_55         2.6296097222E+02      1.9569471624E-04      temp                 
stemp_0.04_56         2.6218979167E+02      1.9569471624E-04      temp                 
stemp_0.04_57         2.6156631944E+02      1.9569471624E-04      temp                 
stemp_0.04_58         2.6191166667E+02      1.9569471624E-04      temp                 
stemp_0.04_59         2.6139777778E+02      1.9569471624E-04      temp                 
stemp_0.04_60         2.6125847222E+02      1.9569471624E-04      temp                 
stemp_0.04_61         2.6103409722E+02      1.9569471624E-04      temp                 
stemp_0.04_62         2.6105527778E+02      1.9569471624E-04      temp                 
stemp_0.04_63         2.6131791667E+02      1.9569471624E-04      temp                 
stemp_0.04_64         2.6136416667E+02      1.9569471624E-04      temp                 
stemp_0.04_65         2.6133423611E+02      1.9569471624E-04      temp                 
stemp_0.04_66         2.6122000000E+02      1.9569471624E-04      temp                 
stemp_0.04_67         2.6128402778E+02      1.9569471624E-04      temp                 
stemp_0.04_68         2.6163854167E+02      1.9569471624E-04      temp                 
stemp_0.04_69         2.6208201389E+02      1.9569471624E-04      temp                 
stemp_0.04_70         2.6224326389E+02      1.9569471624E-04      temp                 
stemp_0.04_71         2.6252777778E+02      1.9569471624E-04      temp                 
stemp_0.04_72         2.6265944444E+02      1.9569471624E-04      temp                 
stemp_0.04_73         2.6282055556E+02      1.9569471624E-04      temp                 
stemp_0.04_74         2.6283659722E+02      1.9569471624E-04      temp                 
stemp_0.04_75         2.6288409722E+02      1.9569471624E-04      temp                 
stemp_0.04_76         2.6293423611E+02      1.9569471624E-04      temp                 
stemp_0.04_77         2.6323048611E+02      1.9569471624E-04      temp                 
stemp_0.04_78         2.6313465278E+02      1.9569471624E-04      temp                 
stemp_0.04_79         2.6338180556E+02      1.9569471624E-04      temp                 
stemp_0.04_80         2.6356451389E+02      1.9569471624E-04      temp                 
stemp_0.04_81         2.6380256944E+02      1.9569471624E-04      temp                 
stemp_0.04_82         2.6352930556E+02      1.9569471624E-04      temp                 
stemp_0.04_83         2.6310020833E+02      1.9569471624E-04      temp                 
stemp_0.04_84         2.6282888889E+02      1.9569471624E-04      temp                 
stemp_0.04_85         2.6335937500E+02      1.9569471624E-04      temp                 
stemp_0.04_86         2.6388076389E+02      1.9569471624E-04      temp                 
stemp_0.04_87         2.6413062500E+02      1.9569471624E-04      temp                 
stemp_0.04_88         2.6392479167E+02      1.9569471624E-04      temp                 
stemp_0.04_89         2.6368486111E+02      1.9569471624E-04      temp                 
stemp_0.04_90         2.6366472222E+02      1.9569471624E-04      temp                 
stemp_0.04_91         2.6400652778E+02      1.9569471624E-04      temp                 
stemp_0.04_92         2.6460520833E+02      1.9569471624E-04      temp                 
stemp_0.04_93         2.6463819444E+02      1.9569471624E-04      temp                 
stemp_0.04_94         2.6481820833E+02      1.9569471624E-04      temp                 
stemp_0.04_95         2.6532816667E+02      1.9569471624E-04      temp                 
stemp_0.04_96         2.6601687500E+02      1.9569471624E-04      temp                 
stemp_0.04_97         2.6636176389E+02      1.9569471624E-04      temp                 
stemp_0.04_98         2.6669159028E+02      1.9569471624E-04      temp                 
stemp_0.04_99         2.6663265278E+02      1.9569471624E-04      temp                 
stemp_0.04_100        2.6641159028E+02      1.9569471624E-04      temp                 
stemp_0.04_101        2.6617620139E+02      1.9569471624E-04      temp                 
stemp_0.04_102        2.6575031250E+02      1.9569471624E-04      temp                 
stemp_0.04_103        2.6577107639E+02      1.9569471624E-04      temp                 
stemp_0.04_104        2.6629965972E+02      1.9569471624E-04      temp                 
stemp_0.04_105        2.6647595833E+02      1.9569471624E-04      temp                 
stemp_0.04_106        2.6637228472E+02      1.9569471624E-04      temp                 
stemp_0.04_107        2.6670754167E+02      1.9569471624E-04      temp                 
stemp_0.04_108        2.6732857639E+02      1.9569471624E-04      temp                 
stemp_0.04_109        2.6690434028E+02      1.9569471624E-04      temp                 
stemp_0.04_110        2.6662713889E+02      1.9569471624E-04      temp                 
stemp_0.04_111        2.6675849306E+02      1.9569471624E-04      temp                 
stemp_0.04_112        2.6730097222E+02      1.9569471624E-04      temp                 
stemp_0.04_113        2.6868420139E+02      1.9569471624E-04      temp                 
stemp_0.04_114        2.6889645139E+02      1.9569471624E-04      temp                 
stemp_0.04_115        2.6887921528E+02      1.9569471624E-04      temp                 
stemp_0.04_116        2.6876905556E+02      1.9569471624E-04      temp                 
stemp_0.04_117        2.6861627778E+02      1.9569471624E-04      temp                 
stemp_0.04_118        2.6884045833E+02      1.9569471624E-04      temp                 
stemp_0.04_119        2.6881700694E+02      1.9569471624E-04      temp                 
stemp_0.04_120        2.6948140972E+02      1.9569471624E-04      temp                 
stemp_0.04_121        2.7159263194E+02      1.9569471624E-04      temp                 
stemp_0.04_122        2.7166861806E+02      1.9569471624E-04      temp                 
stemp_0.04_123        2.7115747222E+02      1.9569471624E-04      temp                 
stemp_0.04_124        2.6998894444E+02      1.9569471624E-04      temp                 
stemp_0.04_125        2.6971682639E+02      1.9569471624E-04      temp                 
stemp_0.04_126        2.6983846528E+02      1.9569471624E-04      temp                 
stemp_0.04_127        2.6917090278E+02      1.9569471624E-04      temp                 
stemp_0.04_128        2.6902384722E+02      1.9569471624E-04      temp                 
stemp_0.04_129        2.6946258333E+02      1.9569471624E-04      temp                 
stemp_0.04_130        2.6967044444E+02      1.9569471624E-04      temp                 
stemp_0.04_131        2.7072868056E+02      1.9569471624E-04      temp                 
stemp_0.04_132        2.7169367361E+02      1.9569471624E-04      temp                 
stemp_0.04_133        2.7164350694E+02      1.9569471624E-04      temp                 
stemp_0.04_134        2.7199043056E+02      1.9569471624E-04      temp                 
stemp_0.04_135        2.7199538194E+02      1.9569471624E-04      temp                 
stemp_0.04_136        2.7202106944E+02      1.9569471624E-04      temp                 
stemp_0.04_137        2.7210013194E+02      1.9569471624E-04      temp                 
stemp_0.04_138        2.7222193750E+02      1.9569471624E-04      temp                 
stemp_0.04_139        2.7243390278E+02      1.9569471624E-04      temp                 
stemp_0.04_140        2.7254177778E+02      1.9569471624E-04      temp                 
stemp_0.04_141        2.7253967361E+02      1.9569471624E-04      temp                 
stemp_0.04_142        2.7253865972E+02      1.9569471624E-04      temp                 
stemp_0.04_143        2.7253707639E+02      1.9569471624E-04      temp                 
stemp_0.04_144        2.7253560417E+02      1.9569471624E-04      temp                 
stemp_0.04_145        2.7253429861E+02      1.9569471624E-04      temp                 
stemp_0.04_146        2.7253423611E+02      1.9569471624E-04      temp                 
stemp_0.04_147        2.7275806250E+02      1.9569471624E-04      temp                 
stemp_0.04_148        2.7338287500E+02      1.9569471624E-04      temp                 
stemp_0.04_149        2.7352575000E+02      1.9569471624E-04      temp                 
stemp_0.04_150        2.7269799306E+02      1.9569471624E-04      temp                 
stemp_0.04_151        2.7453726389E+02      1.9569471624E-04      temp                 
stemp_0.04_152        2.7319363889E+02      1.9569471624E-04      temp                 
stemp_0.04_153        2.7257899306E+02      1.9569471624E-04      temp                 
stemp_0.04_154        2.7257375000E+02      1.9569471624E-04      temp                 
stemp_0.04_155        2.7257325000E+02      1.9569471624E-04      temp                 
stemp_0.04_156        2.7257186806E+02      1.9569471624E-04      temp                 
stemp_0.04_157        2.7257338889E+02      1.9569471624E-04      temp                 
stemp_0.04_158        2.7257273611E+02      1.9569471624E-04      temp                 
stemp_0.04_159        2.7257495139E+02      1.9569471624E-04      temp                 
stemp_0.04_160        2.7257398611E+02      1.9569471624E-04      temp                 
stemp_0.04_161        2.7257453472E+02      1.9569471624E-04      temp                 
stemp_0.04_162        2.7257413194E+02      1.9569471624E-04      temp                 
stemp_0.04_163        2.7257415278E+02      1.9569471624E-04      temp                 
stemp_0.04_164        2.7257431944E+02      1.9569471624E-04      temp                 
stemp_0.04_165        2.7264625000E+02      1.9569471624E-04      temp                 
stemp_0.04_166        2.7612819444E+02      1.9569471624E-04      temp                 
stemp_0.04_167        2.7551355556E+02      1.9569471624E-04      temp                 
stemp_0.04_168        2.7622126389E+02      1.9569471624E-04      temp                 
stemp_0.04_169        2.7673957639E+02      1.9569471624E-04      temp                 
stemp_0.04_170        2.7564435417E+02      1.9569471624E-04      temp                 
stemp_0.04_171        2.7625465972E+02      1.9569471624E-04      temp                 
stemp_0.04_172        2.7763115972E+02      1.9569471624E-04      temp                 
stemp_0.04_173        2.7856356250E+02      1.9569471624E-04      temp                 
stemp_0.04_174        2.7729210417E+02      1.9569471624E-04      temp                 
stemp_0.04_175        2.7785990972E+02      1.9569471624E-04      temp                 
stemp_0.04_176        2.7831791667E+02      1.9569471624E-04      temp                 
stemp_0.04_177        2.7877266667E+02      1.9569471624E-04      temp                 
stemp_0.04_178        2.7717285417E+02      1.9569471624E-04      temp                 
stemp_0.04_179        2.7809406250E+02      1.9569471624E-04      temp                 
stemp_0.04_180        2.7989936806E+02      1.9569471624E-04      temp                 
stemp_0.04_181        2.7993866667E+02      1.9569471624E-04      temp                 
stemp_0.04_182        2.7757389583E+02      1.9569471624E-04      temp                 
stemp_0.04_183        2.7838819444E+02      1.9569471624E-04      temp                 
stemp_0.04_184        2.7762147917E+02      1.9569471624E-04      temp                 
stemp_0.04_185        2.7893988194E+02      1.9569471624E-04      temp                 
stemp_0.04_186        2.8078415972E+02      1.9569471624E-04      temp                 
stemp_0.04_187        2.7954361806E+02      1.9569471624E-04      temp                 
stemp_0.04_188        2.7551925694E+02      1.9569471624E-04      temp                 
stemp_0.04_189        2.7801654861E+02      1.9569471624E-04      temp                 
stemp_0.04_190        2.7948656944E+02      1.9569471624E-04      temp                 
stemp_0.04_191        2.8079463889E+02      1.9569471624E-04      temp                 
stemp_0.04_192        2.8220269444E+02      1.9569471624E-04      temp                 
stemp_0.04_193        2.8139770833E+02      1.9569471624E-04      temp                 
stemp_0.04_194        2.8192744444E+02      1.9569471624E-04      temp                 
stemp_0.04_195        2.8272361111E+02      1.9569471624E-04      temp                 
stemp_0.04_196        2.8346235417E+02      1.9569471624E-04      temp                 
stemp_0.04_197        2.8394366667E+02      1.9569471624E-04      temp                 
stemp_0.04_198        2.8340497917E+02      1.9569471624E-04      temp                 
stemp_0.04_199        2.8384348611E+02      1.9569471624E-04      temp                 
stemp_0.04_200        2.8335858333E+02      1.9569471624E-04      temp                 
stemp_0.04_201        2.8386555556E+02      1.9569471624E-04      temp                 
stemp_0.04_202        2.8368773611E+02      1.9569471624E-04      temp                 
stemp_0.04_203        2.8122846528E+02      1.9569471624E-04      temp                 
stemp_0.04_204        2.7962605556E+02      1.9569471624E-04      temp                 
stemp_0.04_205        2.8240841667E+02      1.9569471624E-04      temp                 
stemp_0.04_206        2.7813109722E+02      1.9569471624E-04      temp                 
stemp_0.04_207        2.7833385417E+02      1.9569471624E-04      temp                 
stemp_0.04_208        2.7980751389E+02      1.9569471624E-04      temp                 
stemp_0.04_209        2.8120261111E+02      1.9569471624E-04      temp                 
stemp_0.04_210        2.8172356944E+02      1.9569471624E-04      temp                 
stemp_0.04_211        2.8024120833E+02      1.9569471624E-04      temp                 
stemp_0.04_212        2.7867381944E+02      1.9569471624E-04      temp                 
stemp_0.04_213        2.8111413889E+02      1.9569471624E-04      temp                 
stemp_0.04_214        2.8055501389E+02      1.9569471624E-04      temp                 
stemp_0.04_215        2.8209353472E+02      1.9569471624E-04      temp                 
stemp_0.04_216        2.8301791667E+02      1.9569471624E-04      temp                 
stemp_0.04_217        2.8007419444E+02      1.9569471624E-04      temp                 
stemp_0.04_218        2.8024959028E+02      1.9569471624E-04      temp                 
stemp_0.04_219        2.7945143750E+02      1.9569471624E-04      temp                 
stemp_0.04_220        2.7966219444E+02      1.9569471624E-04      temp                 