pcf
* control data
             restart          estimation
        20      5110        20         0         2
         1         1              single               point
   2.000000E+01  -3.000000E+00   3.000000E-01   1.000000E-02        -7
   1.000000E+01   1.000000E+01   1.000000E-03
   1.000000E-01
   50  1.000000E-02         3         3   1.000000E-02         3
         0         0         0
* singular value decomposition
         1
  10000000    1.000000E-06
1
* parameter groups
alpha_p_gp             relative              1.0000000000E-01      0.0 switch                1.0000000000E+00      parabolic             1.0000000000E-05      5.0000000000E-01      smaller
alpha_m_gp             relative              1.0000000000E-01      0.0 switch                1.0000000000E+00      parabolic             1.0000000000E-05      5.0000000000E-01      smaller
n_p_gp                 relative              1.0000000000E-01      0.0 switch                1.0000000000E+00      parabolic             1.0000000000E-05      5.0000000000E-01      smaller
n_m_gp                 relative              1.0000000000E-01      0.0 switch                1.0000000000E+00      parabolic             1.0000000000E-05      5.0000000000E-01      smaller
wr_p_gp                relative              1.0000000000E-01      0.0 switch                1.0000000000E+00      parabolic             1.0000000000E-05      5.0000000000E-01      smaller
wr_m_gp                relative              1.0000000000E-01      0.0 switch                1.0000000000E+00      parabolic             1.0000000000E-05      5.0000000000E-01      smaller
tcs_p_gp               relative              1.0000000000E-01      0.0 switch                1.0000000000E+00      parabolic             1.0000000000E-05      5.0000000000E-01      smaller
tcs_m_gp               relative              1.0000000000E-01      0.0 switch                1.0000000000E+00      parabolic             1.0000000000E-05      5.0000000000E-01      smaller
tcd_p_gp               relative              1.0000000000E-01      0.0 switch                1.0000000000E+00      parabolic             1.0000000000E-05      5.0000000000E-01      smaller
tcd_m_gp               relative              1.0000000000E-01      0.0 switch                1.0000000000E+00      parabolic             1.0000000000E-05      5.0000000000E-01      smaller
af_p_gp                relative              1.0000000000E-01      0.0 switch                1.0000000000E+00      parabolic             1.0000000000E-05      5.0000000000E-01      smaller
af_m_gp                relative              1.0000000000E-01      0.0 switch                1.0000000000E+00      parabolic             1.0000000000E-05      5.0000000000E-01      smaller
auf_p_gp               relative              1.0000000000E-01      0.0 switch                1.0000000000E+00      parabolic             1.0000000000E-05      5.0000000000E-01      smaller
auf_m_gp               relative              1.0000000000E-01      0.0 switch                1.0000000000E+00      parabolic             1.0000000000E-05      5.0000000000E-01      smaller
por_p_gp               relative              1.0000000000E-01      0.0 switch                1.0000000000E+00      parabolic             1.0000000000E-05      5.0000000000E-01      smaller
por_m_gp               relative              1.0000000000E-01      0.0 switch                1.0000000000E+00      parabolic             1.0000000000E-05      5.0000000000E-01      smaller
perm_p_gp              relative              1.0000000000E-01      0.0 switch                1.0000000000E+00      parabolic             1.0000000000E-05      5.0000000000E-01      smaller
perm_m_gp              relative              1.0000000000E-01      0.0 switch                1.0000000000E+00      parabolic             1.0000000000E-05      5.0000000000E-01      smaller
den_p_gp               relative              1.0000000000E-01      0.0 switch                1.0000000000E+00      parabolic             1.0000000000E-05      5.0000000000E-01      smaller
den_m_gp               relative              1.0000000000E-01      0.0 switch                1.0000000000E+00      parabolic             1.0000000000E-05      5.0000000000E-01      smaller
* parameter data
alpha_p               none                  factor                1.0000000000E-02      2.5000000000E-03      1.7500000000E-02      alpha_p_gp            1.0000000000E+00      0.0000000000E+00
alpha_m               none                  factor                1.8249143534E-03      4.5622858836E-04      3.1936001185E-03      alpha_m_gp            1.0000000000E+00      0.0000000000E+00
n_p                   none                  factor                2.0500000000E+00      1.0250000000E+00      3.0750000000E+00      n_p_gp                1.0000000000E+00      0.0000000000E+00
n_m                   none                  factor                2.0500000000E+00      1.0250000000E+00      3.0750000000E+00      n_m_gp                1.0000000000E+00      0.0000000000E+00
wr_p                  none                  factor                2.2432414346E-01      5.6081035865E-02      3.9256725105E-01      wr_p_gp               1.0000000000E+00      0.0000000000E+00
wr_m                  none                  factor                1.5948806481E-01      3.9872016203E-02      2.7910411342E-01      wr_m_gp               1.0000000000E+00      0.0000000000E+00
tcs_p                 none                  factor                4.3957660837E-01      1.0989415209E-01      7.6925906464E-01      tcs_p_gp              1.0000000000E+00      0.0000000000E+00
tcs_m                 none                  factor                9.5210506403E-01      2.3802626601E-01      1.6661838620E+00      tcs_m_gp              1.0000000000E+00      0.0000000000E+00
tcd_p                 none                  factor                1.0102340592E-01      2.5255851480E-02      1.7679096036E-01      tcd_p_gp              1.0000000000E+00      0.0000000000E+00
tcd_m                 none                  factor                9.8440542895E-01      2.4610135724E-01      1.7227095007E+00      tcd_m_gp              1.0000000000E+00      0.0000000000E+00
af_p                  none                  factor                1.5051141504E+00      3.7627853760E-01      2.6339497632E+00      af_p_gp               1.0000000000E+00      0.0000000000E+00
af_m                  none                  factor                1.4993891283E+00      3.7484728208E-01      2.6239309745E+00      af_m_gp               1.0000000000E+00      0.0000000000E+00
auf_p                 none                  factor                4.8693541309E-01      1.2173385327E-01      8.5213697291E-01      auf_p_gp              1.0000000000E+00      0.0000000000E+00
auf_m                 none                  factor                6.9888402864E-01      1.7472100716E-01      1.2230470501E+00      auf_m_gp              1.0000000000E+00      0.0000000000E+00
por_p                 none                  factor                6.3739495707E-01      1.5934873927E-01      1.1154411749E+00      por_p_gp              1.0000000000E+00      0.0000000000E+00
por_m                 none                  factor                4.8103076529E-01      1.2025769132E-01      8.4180383926E-01      por_m_gp              1.0000000000E+00      0.0000000000E+00
perm_p                none                  factor                5.3466221272E-11      1.3366555318E-11      9.3565887226E-11      perm_p_gp             1.0000000000E+00      0.0000000000E+00
perm_m                none                  factor                1.0000000000E-13      2.5000000000E-14      1.7500000000E-13      perm_m_gp             1.0000000000E+00      0.0000000000E+00
den_p                 none                  factor                9.0000000000E+02      2.2500000000E+02      1.5750000000E+03      den_p_gp              1.0000000000E+00      0.0000000000E+00
den_m                 none                  factor                1.9000000000E+03      9.5000000000E+02      2.8500000000E+03      den_m_gp              1.0000000000E+00      0.0000000000E+00
* observation groups
temp
mois
* observation data
 stemp_0.04_0          261.0233       7.705174E-04  temp
 stemp_0.04_1          261.0067       7.705174E-04  temp
 stemp_0.04_2          260.8549       7.705174E-04  temp
 stemp_0.04_3          261.0327       7.705174E-04  temp
 stemp_0.04_4          261.3470       7.705174E-04  temp
 stemp_0.04_5          261.0806       7.705174E-04  temp
 stemp_0.04_6          261.1825       7.705174E-04  temp
 stemp_0.04_7          260.6165       7.705174E-04  temp
 stemp_0.04_8          260.0583       7.705174E-04  temp
 stemp_0.04_9          260.6804       7.705174E-04  temp
 stemp_0.04_10         259.4002       7.705174E-04  temp
 stemp_0.04_11         258.0874       7.705174E-04  temp
 stemp_0.04_12         258.4664       7.705174E-04  temp
 stemp_0.04_13         258.4739       7.705174E-04  temp
 stemp_0.04_14         258.4656       7.705174E-04  temp
 stemp_0.04_15         257.2475       7.705174E-04  temp
 stemp_0.04_16         256.8807       7.705174E-04  temp
 stemp_0.04_17         257.2833       7.705174E-04  temp
 stemp_0.04_18         256.7728       7.705174E-04  temp
 stemp_0.04_19         257.1543       7.705174E-04  temp
 stemp_0.04_20         257.7903       7.705174E-04  temp
 stemp_0.04_21         258.6003       7.705174E-04  temp
 stemp_0.04_22         259.1631       7.705174E-04  temp
 stemp_0.04_23         260.0054       7.705174E-04  temp
 stemp_0.04_24         261.4232       7.705174E-04  temp
 stemp_0.04_25         262.3889       7.705174E-04  temp
 stemp_0.04_26         262.8389       7.705174E-04  temp
 stemp_0.04_27         263.0507       7.705174E-04  temp
 stemp_0.04_28         261.9409       7.705174E-04  temp
 stemp_0.04_29         261.0121       7.705174E-04  temp
 stemp_0.04_30         260.3410       7.705174E-04  temp
 stemp_0.04_31         260.1183       7.705174E-04  temp
 stemp_0.04_32         261.2094       7.705174E-04  temp
 stemp_0.04_33         262.1231       7.705174E-04  temp
 stemp_0.04_34         263.8223       7.705174E-04  temp
 stemp_0.04_35         264.9146       7.705174E-04  temp
 stemp_0.04_36         265.2462       7.705174E-04  temp
 stemp_0.04_37         262.0612       7.705174E-04  temp
 stemp_0.04_38         260.9578       7.705174E-04  temp
 stemp_0.04_39         260.2153       7.705174E-04  temp
 stemp_0.04_40         259.5873       7.705174E-04  temp
 stemp_0.04_41         259.2258       7.705174E-04  temp
 stemp_0.04_42         259.4401       7.705174E-04  temp
 stemp_0.04_43         260.1085       7.705174E-04  temp
 stemp_0.04_44         260.1823       7.705174E-04  temp
 stemp_0.04_45         261.2820       7.705174E-04  temp
 stemp_0.04_46         262.1871       7.705174E-04  temp
 stemp_0.04_47         262.7193       7.705174E-04  temp
 stemp_0.04_48         263.7728       7.705174E-04  temp
 stemp_0.04_49         265.4898       7.705174E-04  temp
 stemp_0.04_50         266.7219       7.705174E-04  temp
 stemp_0.04_51         265.5545       7.705174E-04  temp
 stemp_0.04_52         264.3637       7.705174E-04  temp
 stemp_0.04_53         263.4216       7.705174E-04  temp
 stemp_0.04_54         263.1912       7.705174E-04  temp
 stemp_0.04_55         262.9610       7.705174E-04  temp
 stemp_0.04_56         262.1898       7.705174E-04  temp
 stemp_0.04_57         261.5663       7.705174E-04  temp
 stemp_0.04_58         261.9117       7.705174E-04  temp
 stemp_0.04_59         261.3978       7.705174E-04  temp
 stemp_0.04_60         261.2585       7.705174E-04  temp
 stemp_0.04_61         261.0341       7.705174E-04  temp
 stemp_0.04_62         261.0553       7.705174E-04  temp
 stemp_0.04_63         261.3179       7.705174E-04  temp
 stemp_0.04_64         261.3642       7.705174E-04  temp
 stemp_0.04_65         261.3342       7.705174E-04  temp
 stemp_0.04_66         261.2200       7.705174E-04  temp
 stemp_0.04_67         261.2840       7.705174E-04  temp
 stemp_0.04_68         261.6385       7.705174E-04  temp
 stemp_0.04_69         262.0820       7.705174E-04  temp
 stemp_0.04_70         262.2433       7.705174E-04  temp
 stemp_0.04_71         262.5278       7.705174E-04  temp
 stemp_0.04_72         262.6594       7.705174E-04  temp
 stemp_0.04_73         262.8206       7.705174E-04  temp
 stemp_0.04_74         262.8366       7.705174E-04  temp
 stemp_0.04_75         262.8841       7.705174E-04  temp
 stemp_0.04_76         262.9342       7.705174E-04  temp
 stemp_0.04_77         263.2305       7.705174E-04  temp
 stemp_0.04_78         263.1347       7.705174E-04  temp
 stemp_0.04_79         263.3818       7.705174E-04  temp
 stemp_0.04_80         263.5645       7.705174E-04  temp
 stemp_0.04_81         263.8026       7.705174E-04  temp
 stemp_0.04_82         263.5293       7.705174E-04  temp
 stemp_0.04_83         263.1002       7.705174E-04  temp
 stemp_0.04_84         262.8289       7.705174E-04  temp
 stemp_0.04_85         263.3594       7.705174E-04  temp
 stemp_0.04_86         263.8808       7.705174E-04  temp
 stemp_0.04_87         264.1306       7.705174E-04  temp
 stemp_0.04_88         263.9248       7.705174E-04  temp
 stemp_0.04_89         263.6849       7.705174E-04  temp
 stemp_0.04_90         263.6647       7.705174E-04  temp
 stemp_0.04_91         264.0065       7.705174E-04  temp
 stemp_0.04_92         264.6052       7.705174E-04  temp
 stemp_0.04_93         264.6382       7.705174E-04  temp
 stemp_0.04_94         264.8182       7.705174E-04  temp
 stemp_0.04_95         265.3282       7.705174E-04  temp
 stemp_0.04_96         266.0169       7.705174E-04  temp
 stemp_0.04_97         266.3618       7.705174E-04  temp
 stemp_0.04_98         266.6916       7.705174E-04  temp
 stemp_0.04_99         266.6327       7.705174E-04  temp
 stemp_0.04_100        266.4116       7.705174E-04  temp
 stemp_0.04_101        266.1762       7.705174E-04  temp
 stemp_0.04_102        265.7503       7.705174E-04  temp
 stemp_0.04_103        265.7711       7.705174E-04  temp
 stemp_0.04_104        266.2997       7.705174E-04  temp
 stemp_0.04_105        266.4760       7.705174E-04  temp
 stemp_0.04_106        266.3723       7.705174E-04  temp
 stemp_0.04_107        266.7075       7.705174E-04  temp
 stemp_0.04_108        267.3286       7.705174E-04  temp
 stemp_0.04_109        266.9043       7.705174E-04  temp
 stemp_0.04_110        266.6271       7.705174E-04  temp
 stemp_0.04_111        266.7585       7.705174E-04  temp
 stemp_0.04_112        267.3010       7.705174E-04  temp
 stemp_0.04_113        268.6842       7.705174E-04  temp
 stemp_0.04_114        268.8965       7.705174E-04  temp
 stemp_0.04_115        268.8792       7.705174E-04  temp
 stemp_0.04_116        268.7691       7.705174E-04  temp
 stemp_0.04_117        268.6163       7.705174E-04  temp
 stemp_0.04_118        268.8405       7.705174E-04  temp
 stemp_0.04_119        268.8170       7.705174E-04  temp
 stemp_0.04_120        269.4814       7.705174E-04  temp
 stemp_0.04_121        271.5926       7.705174E-04  temp
 stemp_0.04_122        271.6686       7.705174E-04  temp
 stemp_0.04_123        271.1575       7.705174E-04  temp
 stemp_0.04_124        269.9889       7.705174E-04  temp
 stemp_0.04_125        269.7168       7.705174E-04  temp
 stemp_0.04_126        269.8385       7.705174E-04  temp
 stemp_0.04_127        269.1709       7.705174E-04  temp
 stemp_0.04_128        269.0238       7.705174E-04  temp
 stemp_0.04_129        269.4626       7.705174E-04  temp
 stemp_0.04_130        269.6704       7.705174E-04  temp
 stemp_0.04_131        270.7287       7.705174E-04  temp
 stemp_0.04_132        271.6937       7.705174E-04  temp
 stemp_0.04_133        271.6435       7.705174E-04  temp
 stemp_0.04_134        271.9904       7.705174E-04  temp
 stemp_0.04_135        271.9954       7.705174E-04  temp
 stemp_0.04_136        272.0211       7.705174E-04  temp
 stemp_0.04_137        272.1001       7.705174E-04  temp
 stemp_0.04_138        272.2219       7.705174E-04  temp
 stemp_0.04_139        272.4339       7.705174E-04  temp
 stemp_0.04_140        272.5418       7.705174E-04  temp
 stemp_0.04_141        272.5397       7.705174E-04  temp
 stemp_0.04_142        272.5387       7.705174E-04  temp
 stemp_0.04_143        272.5371       7.705174E-04  temp
 stemp_0.04_144        272.5356       7.705174E-04  temp
 stemp_0.04_145        272.5343       7.705174E-04  temp
 stemp_0.04_146        272.5342       7.705174E-04  temp
 stemp_0.04_147        272.7581       7.705174E-04  temp
 stemp_0.04_148        273.3829       7.705174E-04  temp
 stemp_0.04_149        273.5258       7.705174E-04  temp
 stemp_0.04_150        272.6980       7.705174E-04  temp
 stemp_0.04_151        274.5373       7.705174E-04  temp
 stemp_0.04_152        273.1936       7.705174E-04  temp
 stemp_0.04_153        272.5790       7.705174E-04  temp
 stemp_0.04_154        272.5738       7.705174E-04  temp
 stemp_0.04_155        272.5732       7.705174E-04  temp
 stemp_0.04_156        272.5719       7.705174E-04  temp
 stemp_0.04_157        272.5734       7.705174E-04  temp
 stemp_0.04_158        272.5727       7.705174E-04  temp
 stemp_0.04_159        272.5750       7.705174E-04  temp
 stemp_0.04_160        272.5740       7.705174E-04  temp
 stemp_0.04_161        272.5745       7.705174E-04  temp
 stemp_0.04_162        272.5741       7.705174E-04  temp
 stemp_0.04_163        272.5742       7.705174E-04  temp
 stemp_0.04_164        272.5743       7.705174E-04  temp
 stemp_0.04_165        272.6463       7.705174E-04  temp
 stemp_0.04_166        276.1282       7.705174E-04  temp
 stemp_0.04_167        275.5136       7.705174E-04  temp
 stemp_0.04_168        276.2213       7.705174E-04  temp
 stemp_0.04_169        276.7396       7.705174E-04  temp
 stemp_0.04_170        275.6444       7.705174E-04  temp
 stemp_0.04_171        276.2547       7.705174E-04  temp
 stemp_0.04_172        277.6312       7.705174E-04  temp
 stemp_0.04_173        278.5636       7.705174E-04  temp
 stemp_0.04_174        277.2921       7.705174E-04  temp
 stemp_0.04_175        277.8599       7.705174E-04  temp
 stemp_0.04_176        278.3179       7.705174E-04  temp
 stemp_0.04_177        278.7727       7.705174E-04  temp
 stemp_0.04_178        277.1729       7.705174E-04  temp
 stemp_0.04_179        278.0941       7.705174E-04  temp
 stemp_0.04_180        279.8994       7.705174E-04  temp
 stemp_0.04_181        279.9387       7.705174E-04  temp
 stemp_0.04_182        277.5739       7.705174E-04  temp
 stemp_0.04_183        278.3882       7.705174E-04  temp
 stemp_0.04_184        277.6215       7.705174E-04  temp
 stemp_0.04_185        278.9399       7.705174E-04  temp
 stemp_0.04_186        280.7842       7.705174E-04  temp
 stemp_0.04_187        279.5436       7.705174E-04  temp
 stemp_0.04_188        275.5193       7.705174E-04  temp
 stemp_0.04_189        278.0165       7.705174E-04  temp
 stemp_0.04_190        279.4866       7.705174E-04  temp
 stemp_0.04_191        280.7946       7.705174E-04  temp
 stemp_0.04_192        282.2027       7.705174E-04  temp
 stemp_0.04_193        281.3977       7.705174E-04  temp
 stemp_0.04_194        281.9274       7.705174E-04  temp
 stemp_0.04_195        282.7236       7.705174E-04  temp
 stemp_0.04_196        283.4624       7.705174E-04  temp
 stemp_0.04_197        283.9437       7.705174E-04  temp
 stemp_0.04_198        283.4050       7.705174E-04  temp
 stemp_0.04_199        283.8435       7.705174E-04  temp
 stemp_0.04_200        283.3586       7.705174E-04  temp
 stemp_0.04_201        283.8656       7.705174E-04  temp
 stemp_0.04_202        283.6877       7.705174E-04  temp
 stemp_0.04_203        281.2285       7.705174E-04  temp
 stemp_0.04_204        279.6261       7.705174E-04  temp
 stemp_0.04_205        282.4084       7.705174E-04  temp
 stemp_0.04_206        278.1311       7.705174E-04  temp
 stemp_0.04_207        278.3339       7.705174E-04  temp
 stemp_0.04_208        279.8075       7.705174E-04  temp
 stemp_0.04_209        281.2026       7.705174E-04  temp
 stemp_0.04_210        281.7236       7.705174E-04  temp
 stemp_0.04_211        280.2412       7.705174E-04  temp
 stemp_0.04_212        278.6738       7.705174E-04  temp
 stemp_0.04_213        281.1141       7.705174E-04  temp
 stemp_0.04_214        280.5550       7.705174E-04  temp
 stemp_0.04_215        282.0935       7.705174E-04  temp
 stemp_0.04_216        283.0179       7.705174E-04  temp
 stemp_0.04_217        280.0742       7.705174E-04  temp
 stemp_0.04_218        280.2496       7.705174E-04  temp
 stemp_0.04_219        279.4514       7.705174E-04  temp
 stemp_0.04_220        279.6622       7.705174E-04  temp
 stemp_0.04_221        279.6302       7.705174E-04  temp
 stemp_0.04_222        278.8429       7.705174E-04  temp
 stemp_0.04_223        279.8457       7.705174E-04  temp
 stemp_0.04_224        281.0519       7.705174E-04  temp
 stemp_0.04_225        281.0242       7.705174E-04  temp
 stemp_0.04_226        282.0986       7.705174E-04  temp
 stemp_0.04_227        282.6879       7.705174E-04  temp
 stemp_0.04_228        281.9771       7.705174E-04  temp
 stemp_0.04_229        283.3551       7.705174E-04  temp
 stemp_0.04_230        280.5703       7.705174E-04  temp
 stemp_0.04_231        281.3964       7.705174E-04  temp
 stemp_0.04_232        280.1848       7.705174E-04  temp
 stemp_0.04_233        279.6283       7.705174E-04  temp
 stemp_0.04_234        280.4669       7.705174E-04  temp
 stemp_0.04_235        280.0715       7.705174E-04  temp
 stemp_0.04_236        278.2504       7.705174E-04  temp
 stemp_0.04_237        279.0692       7.705174E-04  temp
 stemp_0.04_238        277.4743       7.705174E-04  temp
 stemp_0.04_239        276.3279       7.705174E-04  temp
 stemp_0.04_240        277.8122       7.705174E-04  temp
 stemp_0.04_241        277.4016       7.705174E-04  temp
 stemp_0.04_242        277.7019       7.705174E-04  temp
 stemp_0.04_243        277.9725       7.705174E-04  temp
 stemp_0.04_244        277.4200       7.705174E-04  temp
 stemp_0.04_245        277.1065       7.705174E-04  temp
 stemp_0.04_246        274.0487       7.705174E-04  temp
 stemp_0.04_247        273.3824       7.705174E-04  temp
 stemp_0.04_248        273.2073       7.705174E-04  temp
 stemp_0.04_249        273.0319       7.705174E-04  temp
 stemp_0.04_250        272.9443       7.705174E-04  temp
 stemp_0.04_251        272.8745       7.705174E-04  temp
 stemp_0.04_252        274.4859       7.705174E-04  temp
 stemp_0.04_253        276.7833       7.705174E-04  temp
 stemp_0.04_254        277.7050       7.705174E-04  temp
 stemp_0.04_255        277.0358       7.705174E-04  temp
 stemp_0.04_256        274.3942       7.705174E-04  temp
 stemp_0.04_257        275.6476       7.705174E-04  temp
 stemp_0.04_258        275.7353       7.705174E-04  temp
 stemp_0.04_259        275.3442       7.705174E-04  temp
 stemp_0.04_260        274.3747       7.705174E-04  temp
 stemp_0.04_261        273.6306       7.705174E-04  temp
 stemp_0.04_262        274.1765       7.705174E-04  temp
 stemp_0.04_263        275.4722       7.705174E-04  temp
 stemp_0.04_264        275.7158       7.705174E-04  temp
 stemp_0.04_265        276.3663       7.705174E-04  temp
 stemp_0.04_266        275.7921       7.705174E-04  temp
 stemp_0.04_267        274.6260       7.705174E-04  temp
 stemp_0.04_268        274.7004       7.705174E-04  temp
 stemp_0.04_269        273.4325       7.705174E-04  temp
 stemp_0.04_270        274.4225       7.705174E-04  temp
 stemp_0.04_271        275.1828       7.705174E-04  temp
 stemp_0.04_272        276.0423       7.705174E-04  temp
 stemp_0.04_273        276.0309       7.705174E-04  temp
 stemp_0.04_274        273.4178       7.705174E-04  temp
 stemp_0.04_275        272.9731       7.705174E-04  temp
 stemp_0.04_276        272.7670       7.705174E-04  temp
 stemp_0.04_277        272.8664       7.705174E-04  temp
 stemp_0.04_278        273.8195       7.705174E-04  temp
 stemp_0.04_279        274.4464       7.705174E-04  temp
 stemp_0.04_280        274.1834       7.705174E-04  temp
 stemp_0.04_281        272.9104       7.705174E-04  temp
 stemp_0.04_282        272.5880       7.705174E-04  temp
 stemp_0.04_283        272.4173       7.705174E-04  temp
 stemp_0.04_284        272.2792       7.705174E-04  temp
 stemp_0.04_285        272.1701       7.705174E-04  temp
 stemp_0.04_286        272.2593       7.705174E-04  temp
 stemp_0.04_287        272.3251       7.705174E-04  temp
 stemp_0.04_288        272.3596       7.705174E-04  temp
 stemp_0.04_289        272.3656       7.705174E-04  temp
 stemp_0.04_290        272.3588       7.705174E-04  temp
 stemp_0.04_291        272.3409       7.705174E-04  temp
 stemp_0.04_292        272.3114       7.705174E-04  temp
 stemp_0.04_293        272.2824       7.705174E-04  temp
 stemp_0.04_294        272.2758       7.705174E-04  temp
 stemp_0.04_295        272.2682       7.705174E-04  temp
 stemp_0.04_296        272.2481       7.705174E-04  temp
 stemp_0.04_297        272.2392       7.705174E-04  temp
 stemp_0.04_298        272.2259       7.705174E-04  temp
 stemp_0.04_299        272.1912       7.705174E-04  temp
 stemp_0.04_300        272.1036       7.705174E-04  temp
 stemp_0.04_301        271.9636       7.705174E-04  temp
 stemp_0.04_302        271.8428       7.705174E-04  temp
 stemp_0.04_303        271.7433       7.705174E-04  temp
 stemp_0.04_304        271.6760       7.705174E-04  temp
 stemp_0.04_305        271.4038       7.705174E-04  temp
 stemp_0.04_306        271.1534       7.705174E-04  temp
 stemp_0.04_307        270.9238       7.705174E-04  temp
 stemp_0.04_308        270.7010       7.705174E-04  temp
 stemp_0.04_309        270.6944       7.705174E-04  temp
 stemp_0.04_310        270.4070       7.705174E-04  temp
 stemp_0.04_311        270.2943       7.705174E-04  temp
 stemp_0.04_312        270.0318       7.705174E-04  temp
 stemp_0.04_313        269.8657       7.705174E-04  temp
 stemp_0.04_314        269.6786       7.705174E-04  temp
 stemp_0.04_315        269.0687       7.705174E-04  temp
 stemp_0.04_316        268.2799       7.705174E-04  temp
 stemp_0.04_317        267.8038       7.705174E-04  temp
 stemp_0.04_318        267.5972       7.705174E-04  temp
 stemp_0.04_319        267.9785       7.705174E-04  temp
 stemp_0.04_320        267.9587       7.705174E-04  temp
 stemp_0.04_321        267.6832       7.705174E-04  temp
 stemp_0.04_322        266.6685       7.705174E-04  temp
 stemp_0.04_323        265.6763       7.705174E-04  temp
 stemp_0.04_324        264.8918       7.705174E-04  temp
 stemp_0.04_325        263.6574       7.705174E-04  temp
 stemp_0.04_326        262.5570       7.705174E-04  temp
 stemp_0.04_327        261.9758       7.705174E-04  temp
 stemp_0.04_328        261.8209       7.705174E-04  temp
 stemp_0.04_329        261.6778       7.705174E-04  temp
 stemp_0.04_330        262.4092       7.705174E-04  temp
 stemp_0.04_331        261.9119       7.705174E-04  temp
 stemp_0.04_332        262.1497       7.705174E-04  temp
 stemp_0.04_333        261.3581       7.705174E-04  temp
 stemp_0.04_334        261.0521       7.705174E-04  temp
 stemp_0.04_335        261.2303       7.705174E-04  temp
 stemp_0.04_336        261.0444       7.705174E-04  temp
 stemp_0.04_337        260.2969       7.705174E-04  temp
 stemp_0.04_338        260.3574       7.705174E-04  temp
 stemp_0.04_339        261.2616       7.705174E-04  temp
 stemp_0.04_340        261.0336       7.705174E-04  temp
 stemp_0.04_341        261.1640       7.705174E-04  temp
 stemp_0.04_342        261.8563       7.705174E-04  temp
 stemp_0.04_343        262.3330       7.705174E-04  temp
 stemp_0.04_344        262.8730       7.705174E-04  temp
 stemp_0.04_345        263.1165       7.705174E-04  temp
 stemp_0.04_346        263.5280       7.705174E-04  temp
 stemp_0.04_347        263.2105       7.705174E-04  temp
 stemp_0.04_348        260.9844       7.705174E-04  temp
 stemp_0.04_349        259.9772       7.705174E-04  temp
 stemp_0.04_350        259.9158       7.705174E-04  temp
 stemp_0.04_351        260.2722       7.705174E-04  temp
 stemp_0.04_352        259.1507       7.705174E-04  temp
 stemp_0.04_353        259.4396       7.705174E-04  temp
 stemp_0.04_354        261.1817       7.705174E-04  temp
 stemp_0.04_355        262.0089       7.705174E-04  temp
 stemp_0.04_356        260.7915       7.705174E-04  temp
 stemp_0.04_357        259.7500       7.705174E-04  temp
 stemp_0.04_358        260.2060       7.705174E-04  temp
 stemp_0.04_359        260.1716       7.705174E-04  temp
 stemp_0.04_360        260.4881       7.705174E-04  temp
 stemp_0.04_361        260.9700       7.705174E-04  temp
 stemp_0.04_362        260.4919       7.705174E-04  temp
 stemp_0.04_363        257.9597       7.705174E-04  temp
 stemp_0.04_364        258.2399       7.705174E-04  temp
 stemp_0.1_0           261.7462       7.705174E-04  temp
 stemp_0.1_1           261.7923       7.705174E-04  temp
 stemp_0.1_2           261.6776       7.705174E-04  temp
 stemp_0.1_3           261.7862       7.705174E-04  temp
 stemp_0.1_4           262.0412       7.705174E-04  temp
 stemp_0.1_5           261.8805       7.705174E-04  temp
 stemp_0.1_6           261.9686       7.705174E-04  temp
 stemp_0.1_7           261.5299       7.705174E-04  temp
 stemp_0.1_8           261.0011       7.705174E-04  temp
 stemp_0.1_9           261.4590       7.705174E-04  temp
 stemp_0.1_10          260.5126       7.705174E-04  temp
 stemp_0.1_11          259.2664       7.705174E-04  temp
 stemp_0.1_12          259.3933       7.705174E-04  temp
 stemp_0.1_13          259.3391       7.705174E-04  temp
 stemp_0.1_14          259.4340       7.705174E-04  temp
 stemp_0.1_15          258.4273       7.705174E-04  temp
 stemp_0.1_16          258.0144       7.705174E-04  temp