pcf
* control data
             restart          estimation
         4      5110         4         0         2
         1         1              single               point               
   2.000000E+01  -3.000000E+00   3.000000E-01   1.000000E-02        -7
   1.000000E+01   1.000000E+01   1.000000E-03
   1.000000E-01
         1   1.000000E-02         3         3   1.000000E-02         3
         0         0         0
* singular value decomposition
         1
  10000000    1.000000E-06
1
* parameter groups
n_m_gp                 relative              1.0000000000E-01      0.0 switch                1.0000000000E+00      parabolic             1.0000000000E-05      5.0000000000E-01      smaller              
tcs_m_gp               relative              1.0000000000E-01      0.0 switch                1.0000000000E+00      parabolic             1.0000000000E-05      5.0000000000E-01      smaller              
af_m_gp                relative              1.0000000000E-01      0.0 switch                1.0000000000E+00      parabolic             1.0000000000E-05      5.0000000000E-01      smaller              
af_p_gp                relative              1.0000000000E-01      0.0 switch                1.0000000000E+00      parabolic             1.0000000000E-05      5.0000000000E-01      smaller              
* parameter data
n_m                   none                  factor                1.2000000000E+00      1.0500000000E+00      3.0000000000E+00      n_m_gp                1.0000000000E+00      0.0000000000E+00                
tcs_m                 none                  factor                1.0000000000E+00      8.0000000000E-01      2.5000000000E+00      tcs_m_gp              1.0000000000E+00      0.0000000000E+00                
af_m                  none                  factor                5.0000000000E-02      2.0000000000E-02      1.0000000000E-01      af_m_gp               1.0000000000E+00      0.0000000000E+00                
af_p                  none                  factor                5.0000000000E-03      2.0000000000E-03      1.0000000000E-02      af_p_gp               1.0000000000E+00      0.0000000000E+00                
* observation groups
temp                 
mois                 
* observation data
stemp_0.04_0          2.6102326389E+02      1.9569471624E-04      temp                 
stemp_0.04_1          2.6100666667E+02      1.9569471624E-04      temp                 
stemp_0.04_2          2.6085486111E+02      1.9569471624E-04      temp                 
stemp_0.04_3          2.6103270833E+02      1.9569471624E-04      temp                 
stemp_0.04_4          2.6134701389E+02      1.9569471624E-04      temp                 
stemp_0.04_5          2.6108062500E+02      1.9569471624E-04      temp                 
stemp_0.04_6          2.6118250000E+02      1.9569471624E-04      temp                 
stemp_0.04_7          2.6061652778E+02      1.9569471624E-04      temp                 
stemp_0.04_8          2.6005826389E+02      1.9569471624E-04      temp                 
stemp_0.04_9          2.6068041667E+02      1.9569471624E-04      temp                 
stemp_0.04_10         2.5940020833E+02      1.9569471624E-04      temp                 
stemp_0.04_11         2.5808736111E+02      1.9569471624E-04      temp                 
stemp_0.04_12         2.5846638889E+02      1.9569471624E-04      temp                 
stemp_0.04_13         2.5847388889E+02      1.9569471624E-04      temp                 
stemp_0.04_14         2.5846555556E+02      1.9569471624E-04      temp                 
stemp_0.04_15         2.5724750000E+02      1.9569471624E-04      temp                 
stemp_0.04_16         2.5688069444E+02      1.9569471624E-04      temp                 
stemp_0.04_17         2.5728326389E+02      1.9569471624E-04      temp                 
stemp_0.04_18         2.5677284722E+02      1.9569471624E-04      temp                 
stemp_0.04_19         2.5715430556E+02      1.9569471624E-04      temp                 
stemp_0.04_20         2.5779034722E+02      1.9569471624E-04      temp                 
stemp_0.04_21         2.5860034722E+02      1.9569471624E-04      temp                 
stemp_0.04_22         2.5916305556E+02      1.9569471624E-04      temp                 
stemp_0.04_23         2.6000541667E+02      1.9569471624E-04      temp                 
stemp_0.04_24         2.6142319444E+02      1.9569471624E-04      temp                 
stemp_0.04_25         2.6238886806E+02      1.9569471624E-04      temp                 
stemp_0.04_26         2.6283889583E+02      1.9569471624E-04      temp                 
stemp_0.04_27         2.6305069444E+02      1.9569471624E-04      temp                 
stemp_0.04_28         2.6194090278E+02      1.9569471624E-04      temp                 
stemp_0.04_29         2.6101208333E+02      1.9569471624E-04      temp                 
stemp_0.04_30         2.6034104167E+02      1.9569471624E-04      temp                 
stemp_0.04_31         2.6011833333E+02      1.9569471624E-04      temp                 
stemp_0.04_32         2.6120944444E+02      1.9569471624E-04      temp                 
stemp_0.04_33         2.6212306250E+02      1.9569471624E-04      temp                 
stemp_0.04_34         2.6382234028E+02      1.9569471624E-04      temp                 
stemp_0.04_35         2.6491457639E+02      1.9569471624E-04      temp                 
stemp_0.04_36         2.6524615972E+02      1.9569471624E-04      temp                 
stemp_0.04_37         2.6206125000E+02      1.9569471624E-04      temp                 
stemp_0.04_38         2.6095784722E+02      1.9569471624E-04      temp                 
stemp_0.04_39         2.6021527778E+02      1.9569471624E-04      temp                 
stemp_0.04_40         2.5958729167E+02      1.9569471624E-04      temp                 
stemp_0.04_41         2.5922576389E+02      1.9569471624E-04      temp                 
stemp_0.04_42         2.5944013889E+02      1.9569471624E-04      temp                 
stemp_0.04_43         2.6010847222E+02      1.9569471624E-04      temp                 
stemp_0.04_44         2.6018229167E+02      1.9569471624E-04      temp                 
stemp_0.04_45         2.6128201389E+02      1.9569471624E-04      temp                 
stemp_0.04_46         2.6218708333E+02      1.9569471624E-04      temp                 
stemp_0.04_47         2.6271927083E+02      1.9569471624E-04      temp                 
stemp_0.04_48         2.6377281250E+02      1.9569471624E-04      temp                 
stemp_0.04_49         2.6548983333E+02      1.9569471624E-04      temp                 
stemp_0.04_50         2.6672193750E+02      1.9569471624E-04      temp                 
stemp_0.04_51         2.6555454167E+02      1.9569471624E-04      temp                 
stemp_0.04_52         2.6436368056E+02      1.9569471624E-04      temp                 
stemp_0.04_53         2.6342159722E+02      1.9569471624E-04      temp                 
stemp_0.04_54         2.6319118056E+02      1.9569471624E-04      temp                 
stemp_0.04_55         2.6296097222E+02      1.9569471624E-04      temp                 
stemp_0.04_56         2.6218979167E+02      1.9569471624E-04      temp                 
stemp_0.04_57         2.6156631944E+02      1.9569471624E-04      temp                 
stemp_0.04_58         2.6191166667E+02      1.9569471624E-04      temp                 
stemp_0.04_59         2.6139777778E+02      1.9569471624E-04      temp                 
stemp_0.04_60         2.6125847222E+02      1.9569471624E-04      temp                 
stemp_0.04_61         2.6103409722E+02      1.9569471624E-04      temp                 
stemp_0.04_62         2.6105527778E+02      1.9569471624E-04      temp                 
stemp_0.04_63         2.6131791667E+02      1.9569471624E-04      temp                 
stemp_0.04_64         2.6136416667E+02      1.9569471624E-04      temp                 
stemp_0.04_65         2.6133423611E+02      1.9569471624E-04      temp                 
stemp_0.04_66         2.6122000000E+02      1.9569471624E-04      temp                 
stemp_0.04_67         2.6128402778E+02      1.9569471624E-04      temp                 
stemp_0.04_68         2.6163854167E+02      1.9569471624E-04      temp                 
stemp_0.04_69         2.6208201389E+02      1.9569471624E-04      temp                 
stemp_0.04_70         2.6224326389E+02      1.9569471624E-04      temp                 
stemp_0.04_71         2.6252777778E+02      1.9569471624E-04      temp                 
stemp_0.04_72         2.6265944444E+02      1.9569471624E-04      temp                 
stemp_0.04_73         2.6282055556E+02      1.9569471624E-04      temp                 
stemp_0.04_74         2.6283659722E+02      1.9569471624E-04      temp                 
stemp_0.04_75         2.6288409722E+02      1.9569471624E-04      temp                 
stemp_0.04_76         2.6293423611E+02      1.9569471624E-04      temp                 
stemp_0.04_77         2.6323048611E+02      1.9569471624E-04      temp                 
stemp_0.04_78         2.6313465278E+02      1.9569471624E-04      temp                 
stemp_0.04_79         2.6338180556E+02      1.9569471624E-04      temp                 
stemp_0.04_80         2.6356451389E+02      1.9569471624E-04      temp                 
stemp_0.04_81         2.6380256944E+02      1.9569471624E-04      temp                 
stemp_0.04_82         2.6352930556E+02      1.9569471624E-04      temp                 
stemp_0.04_83         2.6310020833E+02      1.9569471624E-04      temp                 
stemp_0.04_84         2.6282888889E+02      1.9569471624E-04      temp                 
stemp_0.04_85         2.6335937500E+02      1.9569471624E-04      temp                 
stemp_0.04_86         2.6388076389E+02      1.9569471624E-04      temp                 
stemp_0.04_87         2.6413062500E+02      1.9569471624E-04      temp                 
stemp_0.04_88         2.6392479167E+02      1.9569471624E-04      temp                 
stemp_0.04_89         2.6368486111E+02      1.9569471624E-04      temp                 
stemp_0.04_90         2.6366472222E+02      1.9569471624E-04      temp                 
stemp_0.04_91         2.6400652778E+02      1.9569471624E-04      temp                 
stemp_0.04_92         2.6460520833E+02      1.9569471624E-04      temp                 
stemp_0.04_93         2.6463819444E+02      1.9569471624E-04      temp                 
stemp_0.04_94         2.6481820833E+02      1.9569471624E-04      temp                 
stemp_0.04_95         2.6532816667E+02      1.9569471624E-04      temp                 
stemp_0.04_96         2.6601687500E+02      1.9569471624E-04      temp                 
stemp_0.04_97         2.6636176389E+02      1.9569471624E-04      temp                 
stemp_0.04_98         2.6669159028E+02      1.9569471624E-04      temp                 
stemp_0.04_99         2.6663265278E+02      1.9569471624E-04      temp                 
stemp_0.04_100        2.6641159028E+02      1.9569471624E-04      temp                 
stemp_0.04_101        2.6617620139E+02      1.9569471624E-04      temp                 
stemp_0.04_102        2.6575031250E+02      1.9569471624E-04      temp                 
stemp_0.04_103        2.6577107639E+02      1.9569471624E-04      temp                 
stemp_0.04_104        2.6629965972E+02      1.9569471624E-04      temp                 
stemp_0.04_105        2.6647595833E+02      1.9569471624E-04      temp                 
stemp_0.04_106        2.6637228472E+02      1.9569471624E-04      temp                 
stemp_0.04_107        2.6670754167E+02      1.9569471624E-04      temp                 
stemp_0.04_108        2.6732857639E+02      1.9569471624E-04      temp                 
stemp_0.04_109        2.6690434028E+02      1.9569471624E-04      temp                 
stemp_0.04_110        2.6662713889E+02      1.9569471624E-04      temp                 
stemp_0.04_111        2.6675849306E+02      1.9569471624E-04      temp                 
stemp_0.04_112        2.6730097222E+02      1.9569471624E-04      temp                 
stemp_0.04_113        2.6868420139E+02      1.9569471624E-04      temp                 
stemp_0.04_114        2.6889645139E+02      1.9569471624E-04      temp                 
stemp_0.04_115        2.6887921528E+02      1.9569471624E-04      temp                 
stemp_0.04_116        2.6876905556E+02      1.9569471624E-04      temp                 
stemp_0.04_117        2.6861627778E+02      1.9569471624E-04      temp                 
stemp_0.04_118        2.6884045833E+02      1.9569471624E-04      temp                 
stemp_0.04_119        2.6881700694E+02      1.9569471624E-04      temp                 
stemp_0.04_120        2.6948140972E+02      1.9569471624E-04      temp                 
stemp_0.04_121        2.7159263194E+02      1.9569471624E-04      temp                 
stemp_0.04_122        2.7166861806E+02      1.9569471624E-04      temp                 
stemp_0.04_123        2.7115747222E+02      1.9569471624E-04      temp                 
stemp_0.04_124        2.6998894444E+02      1.9569471624E-04      temp                 
stemp_0.04_125        2.6971682639E+02      1.9569471624E-04      temp                 
stemp_0.04_126        2.6983846528E+02      1.9569471624E-04      temp                 
stemp_0.04_127        2.6917090278E+02      1.9569471624E-04      temp                 
stemp_0.04_128        2.6902384722E+02      1.9569471624E-04      temp                 
stemp_0.04_129        2.6946258333E+02      1.9569471624E-04      temp                 
stemp_0.04_130        2.6967044444E+02      1.9569471624E-04      temp                 
stemp_0.04_131        2.7072868056E+02      1.9569471624E-04      temp                 
stemp_0.04_132        2.7169367361E+02      1.9569471624E-04      temp                 
stemp_0.04_133        2.7164350694E+02      1.9569471624E-04      temp                 
stemp_0.04_134        2.7199043056E+02      1.9569471624E-04      temp                 
stemp_0.04_135        2.7199538194E+02      1.9569471624E-04      temp                 
stemp_0.04_136        2.7202106944E+02      1.9569471624E-04      temp                 
stemp_0.04_137        2.7210013194E+02      1.9569471624E-04      temp                 
stemp_0.04_138        2.7222193750E+02      1.9569471624E-04      temp                 
stemp_0.04_139        2.7243390278E+02      1.9569471624E-04      temp                 
stemp_0.04_140        2.7254177778E+02      1.9569471624E-04      temp                 
stemp_0.04_141        2.7253967361E+02      1.9569471624E-04      temp                 
stemp_0.04_142        2.7253865972E+02      1.9569471624E-04      temp                 
stemp_0.04_143        2.7253707639E+02      1.9569471624E-04      temp                 
stemp_0.04_144        2.7253560417E+02      1.9569471624E-04      temp                 
stemp_0.04_145        2.7253429861E+02      1.9569471624E-04      temp                 
stemp_0.04_146        2.7253423611E+02      1.9569471624E-04      temp                 
stemp_0.04_147        2.7275806250E+02      1.9569471624E-04      temp                 
stemp_0.04_148        2.7338287500E+02      1.9569471624E-04      temp                 
stemp_0.04_149        2.7352575000E+02      1.9569471624E-04      temp                 
stemp_0.04_150        2.7269799306E+02      1.9569471624E-04      temp                 
stemp_0.04_151        2.7453726389E+02      1.9569471624E-04      temp                 
stemp_0.04_152        2.7319363889E+02      1.9569471624E-04      temp                 
stemp_0.04_153        2.7257899306E+02      1.9569471624E-04      temp                 
stemp_0.04_154        2.7257375000E+02      1.9569471624E-04      temp                 
stemp_0.04_155        2.7257325000E+02      1.9569471624E-04      temp                 
stemp_0.04_156        2.7257186806E+02      1.9569471624E-04      temp                 
stemp_0.04_157        2.7257338889E+02      1.9569471624E-04      temp                 
stemp_0.04_158        2.7257273611E+02      1.9569471624E-04      temp                 
stemp_0.04_159        2.7257495139E+02      1.9569471624E-04      temp                 
stemp_0.04_160        2.7257398611E+02      1.9569471624E-04      temp                 
stemp_0.04_161        2.7257453472E+02      1.9569471624E-04      temp                 
stemp_0.04_162        2.7257413194E+02      1.9569471624E-04      temp                 
stemp_0.04_163        2.7257415278E+02      1.9569471624E-04      temp                 
stemp_0.04_164        2.7257431944E+02      1.9569471624E-04      temp                 
stemp_0.04_165        2.7264625000E+02      1.9569471624E-04      temp                 
stemp_0.04_166        2.7612819444E+02      1.9569471624E-04      temp                 
stemp_0.04_167        2.7551355556E+02      1.9569471624E-04      temp                 
stemp_0.04_168        2.7622126389E+02      1.9569471624E-04      temp                 
stemp_0.04_169        2.7673957639E+02      1.9569471624E-04      temp                 
stemp_0.04_170        2.7564435417E+02      1.9569471624E-04      temp                 
stemp_0.04_171        2.7625465972E+02      1.9569471624E-04      temp                 
stemp_0.04_172        2.7763115972E+02      1.9569471624E-04      temp                 
stemp_0.04_173        2.7856356250E+02      1.9569471624E-04      temp                 
stemp_0.04_174        2.7729210417E+02      1.9569471624E-04      temp                 
stemp_0.04_175        2.7785990972E+02      1.9569471624E-04      temp                 
stemp_0.04_176        2.7831791667E+02      1.9569471624E-04      temp                 
stemp_0.04_177        2.7877266667E+02      1.9569471624E-04      temp                 
stemp_0.04_178        2.7717285417E+02      1.9569471624E-04      temp                 
stemp_0.04_179        2.7809406250E+02      1.9569471624E-04      temp                 
stemp_0.04_180        2.7989936806E+02      1.9569471624E-04      temp                 
stemp_0.04_181        2.7993866667E+02      1.9569471624E-04      temp                 
stemp_0.04_182        2.7757389583E+02      1.9569471624E-04      temp                 
stemp_0.04_183        2.7838819444E+02      1.9569471624E-04      temp                 
stemp_0.04_184        2.7762147917E+02      1.9569471624E-04      temp                 
stemp_0.04_185        2.7893988194E+02      1.9569471624E-04      temp                 
stemp_0.04_186        2.8078415972E+02      1.9569471624E-04      temp                 
stemp_0.04_187        2.7954361806E+02      1.9569471624E-04      temp                 
stemp_0.04_188        2.7551925694E+02      1.9569471624E-04      temp                 
stemp_0.04_189        2.7801654861E+02      1.9569471624E-04      temp                 
stemp_0.04_190        2.7948656944E+02      1.9569471624E-04      temp                 
stemp_0.04_191        2.8079463889E+02      1.9569471624E-04      temp                 
stemp_0.04_192        2.8220269444E+02      1.9569471624E-04      temp                 
stemp_0.04_193        2.8139770833E+02      1.9569471624E-04      temp                 
stemp_0.04_194        2.8192744444E+02      1.9569471624E-04      temp                 
stemp_0.04_195        2.8272361111E+02      1.9569471624E-04      temp                 
stemp_0.04_196        2.8346235417E+02      1.9569471624E-04      temp                 
stemp_0.04_197        2.8394366667E+02      1.9569471624E-04      temp                 
stemp_0.04_198        2.8340497917E+02      1.9569471624E-04      temp                 
stemp_0.04_199        2.8384348611E+02      1.9569471624E-04      temp                 
stemp_0.04_200        2.8335858333E+02      1.9569471624E-04      temp                 
stemp_0.04_201        2.8386555556E+02      1.9569471624E-04      temp                 
stemp_0.04_202        2.8368773611E+02      1.9569471624E-04      temp                 
stemp_0.04_203        2.8122846528E+02      1.9569471624E-04      temp                 
stemp_0.04_204        2.7962605556E+02      1.9569471624E-04      temp                 
stemp_0.04_205        2.8240841667E+02      1.9569471624E-04      temp                 
stemp_0.04_206        2.7813109722E+02      1.9569471624E-04      temp                 
stemp_0.04_207        2.7833385417E+02      1.9569471624E-04      temp                 
stemp_0.04_208        2.7980751389E+02      1.9569471624E-04      temp                 
stemp_0.04_209        2.8120261111E+02      1.9569471624E-04      temp                 
stemp_0.04_210        2.8172356944E+02      1.9569471624E-04      temp                 
stemp_0.04_211        2.8024120833E+02      1.9569471624E-04      temp                 
stemp_0.04_212        2.7867381944E+02      1.9569471624E-04      temp                 
stemp_0.04_213        2.8111413889E+02      1.9569471624E-04      temp                 
stemp_0.04_214        2.8055501389E+02      1.9569471624E-04      temp                 
stemp_0.04_215        2.8209353472E+02      1.9569471624E-04      temp                 
stemp_0.04_216        2.8301791667E+02      1.9569471624E-04      temp                 
stemp_0.04_217        2.8007419444E+02      1.9569471624E-04      temp                 
stemp_0.04_218        2.8024959028E+02      1.9569471624E-04      temp                 
stemp_0.04_219        2.7945143750E+02      1.9569471624E-04      temp                 
stemp_0.04_220        2.7966219444E+02      1.9569471624E-04      temp                 
stemp_0.04_221        2.7963023611E+02      1.9569471624E-04      temp                 
stemp_0.04_222        2.7884294444E+02      1.9569471624E-04      temp                 
stemp_0.04_223        2.7984568056E+02      1.9569471624E-04      temp                 
stemp_0.04_224        2.8105186806E+02      1.9569471624E-04      temp                 
stemp_0.04_225        2.8102422917E+02      1.9569471624E-04      temp                 
stemp_0.04_226        2.8209863194E+02      1.9569471624E-04      temp                 
stemp_0.04_227        2.8268787500E+02      1.9569471624E-04      temp                 
stemp_0.04_228        2.8197706250E+02      1.9569471624E-04      temp                 
stemp_0.04_229        2.8335512500E+02      1.9569471624E-04      temp                 
stemp_0.04_230        2.8057025694E+02      1.9569471624E-04      temp                 
stemp_0.04_231        2.8139638194E+02      1.9569471624E-04      temp                 
stemp_0.04_232        2.8018475000E+02      1.9569471624E-04      temp                 
stemp_0.04_233        2.7962832639E+02      1.9569471624E-04      temp                 
stemp_0.04_234        2.8046688889E+02      1.9569471624E-04      temp                 
stemp_0.04_235        2.8007145833E+02      1.9569471624E-04      temp                 
stemp_0.04_236        2.7825040278E+02      1.9569471624E-04      temp                 
stemp_0.04_237        2.7906915972E+02      1.9569471624E-04      temp                 
stemp_0.04_238        2.7747427778E+02      1.9569471624E-04      temp                 
stemp_0.04_239        2.7632788194E+02      1.9569471624E-04      temp                 
stemp_0.04_240        2.7781220139E+02      1.9569471624E-04      temp                 
stemp_0.04_241        2.7740156944E+02      1.9569471624E-04      temp                 
stemp_0.04_242        2.7770188194E+02      1.9569471624E-04      temp                 
stemp_0.04_243        2.7797253472E+02      1.9569471624E-04      temp                 
stemp_0.04_244        2.7742004861E+02      1.9569471624E-04      temp                 
stemp_0.04_245        2.7710645139E+02      1.9569471624E-04      temp                 
stemp_0.04_246        2.7404866667E+02      1.9569471624E-04      temp                 
stemp_0.04_247        2.7338244444E+02      1.9569471624E-04      temp                 
stemp_0.04_248        2.7320731250E+02      1.9569471624E-04      temp                 
stemp_0.04_249        2.7303193056E+02      1.9569471624E-04      temp                 
stemp_0.04_250        2.7294427778E+02      1.9569471624E-04      temp                 
stemp_0.04_251        2.7287446528E+02      1.9569471624E-04      temp                 
stemp_0.04_252        2.7448590972E+02      1.9569471624E-04      temp                 
stemp_0.04_253        2.7678332639E+02      1.9569471624E-04      temp                 
stemp_0.04_254        2.7770503472E+02      1.9569471624E-04      temp                 
stemp_0.04_255        2.7703584028E+02      1.9569471624E-04      temp                 
stemp_0.04_256        2.7439415278E+02      1.9569471624E-04      temp                 
stemp_0.04_257        2.7564755556E+02      1.9569471624E-04      temp                 
stemp_0.04_258        2.7573534722E+02      1.9569471624E-04      temp                 
stemp_0.04_259        2.7534417361E+02      1.9569471624E-04      temp                 
stemp_0.04_260        2.7437467361E+02      1.9569471624E-04      temp                 
stemp_0.04_261        2.7363061111E+02      1.9569471624E-04      temp                 
stemp_0.04_262        2.7417645833E+02      1.9569471624E-04      temp                 
stemp_0.04_263        2.7547218750E+02      1.9569471624E-04      temp                 
stemp_0.04_264        2.7571575694E+02      1.9569471624E-04      temp                 
stemp_0.04_265        2.7636629861E+02      1.9569471624E-04      temp                 
stemp_0.04_266        2.7579209722E+02      1.9569471624E-04      temp                 
stemp_0.04_267        2.7462597917E+02      1.9569471624E-04      temp                 
stemp_0.04_268        2.7470038889E+02      1.9569471624E-04      temp                 
stemp_0.04_269        2.7343250000E+02      1.9569471624E-04      temp                 
stemp_0.04_270        2.7442246528E+02      1.9569471624E-04      temp                 
stemp_0.04_271        2.7518281944E+02      1.9569471624E-04      temp                 
stemp_0.04_272        2.7604229861E+02      1.9569471624E-04      temp                 
stemp_0.04_273        2.7603093750E+02      1.9569471624E-04      temp                 
stemp_0.04_274        2.7341776389E+02      1.9569471624E-04      temp                 
stemp_0.04_275        2.7297313194E+02      1.9569471624E-04      temp                 
stemp_0.04_276        2.7276699306E+02      1.9569471624E-04      temp                 
stemp_0.04_277        2.7286644444E+02      1.9569471624E-04      temp                 
stemp_0.04_278        2.7381948611E+02      1.9569471624E-04      temp                 
stemp_0.04_279        2.7444644444E+02      1.9569471624E-04      temp                 
stemp_0.04_280        2.7418342361E+02      1.9569471624E-04      temp                 
stemp_0.04_281        2.7291035417E+02      1.9569471624E-04      temp                 
stemp_0.04_282        2.7258801389E+02      1.9569471624E-04      temp                 
stemp_0.04_283        2.7241727083E+02      1.9569471624E-04      temp                 
stemp_0.04_284        2.7227922222E+02      1.9569471624E-04      temp                 
stemp_0.04_285        2.7217009722E+02      1.9569471624E-04      temp                 
stemp_0.04_286        2.7225929167E+02      1.9569471624E-04      temp                 
stemp_0.04_287        2.7232510417E+02      1.9569471624E-04      temp                 
stemp_0.04_288        2.7235961806E+02      1.9569471624E-04      temp                 
stemp_0.04_289        2.7236556944E+02      1.9569471624E-04      temp                 
stemp_0.04_290        2.7235879861E+02      1.9569471624E-04      temp                 
stemp_0.04_291        2.7234094444E+02      1.9569471624E-04      temp                 
stemp_0.04_292        2.7231142361E+02      1.9569471624E-04      temp                 
stemp_0.04_293        2.7228235417E+02      1.9569471624E-04      temp                 
stemp_0.04_294        2.7227584722E+02      1.9569471624E-04      temp                 
stemp_0.04_295        2.7226820139E+02      1.9569471624E-04      temp                 
stemp_0.04_296        2.7224809028E+02      1.9569471624E-04      temp                 
stemp_0.04_297        2.7223921528E+02      1.9569471624E-04      temp                 
stemp_0.04_298        2.7222594444E+02      1.9569471624E-04      temp                 
stemp_0.04_299        2.7219119444E+02      1.9569471624E-04      temp                 
stemp_0.04_300        2.7210363194E+02      1.9569471624E-04      temp                 
stemp_0.04_301        2.7196357639E+02      1.9569471624E-04      temp                 
stemp_0.04_302        2.7184279861E+02      1.9569471624E-04      temp                 
stemp_0.04_303        2.7174332639E+02      1.9569471624E-04      temp                 
stemp_0.04_304        2.7167602778E+02      1.9569471624E-04      temp                 
stemp_0.04_305        2.7140377778E+02      1.9569471624E-04      temp                 
stemp_0.04_306        2.7115336806E+02      1.9569471624E-04      temp                 
stemp_0.04_307        2.7092383333E+02      1.9569471624E-04      temp                 
stemp_0.04_308        2.7070100694E+02      1.9569471624E-04      temp                 
stemp_0.04_309        2.7069440278E+02      1.9569471624E-04      temp                 
stemp_0.04_310        2.7040702778E+02      1.9569471624E-04      temp                 
stemp_0.04_311        2.7029434028E+02      1.9569471624E-04      temp                 
stemp_0.04_312        2.7003184722E+02      1.9569471624E-04      temp                 
stemp_0.04_313        2.6986570833E+02      1.9569471624E-04      temp                 
stemp_0.04_314        2.6967859722E+02      1.9569471624E-04      temp                 