\ The following script was copied by combining Figure 4.1 and Figure 4.2 in https://github.com/usgs/pestpp/blob/develop/documentation/pestpp_users_manual.md#s8
pcf
* control data
restart regularization \ RSTFLE PESTMODE
5 19 2 2 3 \ NPAR NOBS NPARGP NPRIOR NOBSGP
2 3 single point \ NTPLFLE NINSFLE PRECIS DPOINT [NUMCOM]
10.0 -3.0 0.3 0.03 10 \ RLAMBDA1 RLAMFAC PHIRATSUF PHIREDLAM NUMLAM
10.0 10.0 0.001 \ RELPARMAX FACPARMAX FACORIG
0.1 \ PHIREDSWH
50 0.005 4 4 0.005 4 \ NOPTMAX PHIREDSTP NPHISTP NPHINORED RELPARSTP NRELPAR
1 1 1 \ ICOV ICOR IEIG
* parameter groups
ro relative 0.01 0.0 switch 2.0 parabolic \ PARGPNME INCTYP DERINC DERINCLB FORCEN DERINCMUL DERMTHD
h relative 0.01 0.0 switch 2.0 parabolic \ PARGPNME INCTYP DERINC DERINCLB FORCEN DERINCMUL DERMTHD
* parameter data
\ (one such line for each parameter)
ro1 fixed factor 0.5 .1 10 ro 1.0 0.0 \ PARNME PARTRANS PARCHGLIM PARVAL1 PARLBND PARUBND PARGP SCALE OFFSET DERCOM
ro2 log factor 5.0 .1 10 ro 1.0 0.0 \PARNME PARTRANS PARCHGLIM PARVAL1 PARLBND PARUBND PARGP SCALE OFFSET DERCOM
ro3 tied factor 0.5 .1 10 ro 1.0 0.0 \ PARNME PARTRANS PARCHGLIM PARVAL1 PARLBND PARUBND PARGP SCALE OFFSET DERCOM
h1 none factor 2.0 .05 100 h 1.0 0.0 \ PARNME PARTRANS PARCHGLIM PARVAL1 PARLBND PARUBND PARGP SCALE OFFSET DERCOM
h2 log factor 5.0 .05 100 h 1.0 0.0 \ PARNME PARTRANS PARCHGLIM PARVAL1 PARLBND PARUBND PARGP SCALE OFFSET DERCOM
ro3 ro2
* observation groups
obsgp1 \OBGNME
obsgp2 \OBGNME
prgp1 \ What is this observation group? It is not provided in the observation data
* observation data
ar1 1.21038 1.0 obsgp1 \ OBSNME OBSVAL WEIGHT OBGNME
ar2 1.51208 1.0 obsgp1 \ OBSNME OBSVAL WEIGHT OBGNME
ar3 2.07204 1.0 obsgp1 \ OBSNME OBSVAL WEIGHT OBGNME
ar4 2.94056 1.0 obsgp1 \ OBSNME OBSVAL WEIGHT OBGNME
ar5 4.15787 1.0 obsgp1 \ OBSNME OBSVAL WEIGHT OBGNME
ar6 5.7762 1.0 obsgp1 \ OBSNME OBSVAL WEIGHT OBGNME
ar7 7.7894 1.0 obsgp1 \ OBSNME OBSVAL WEIGHT OBGNME
ar8 9.99743 1.0 obsgp1 \ OBSNME OBSVAL WEIGHT OBGNME
ar9 11.8307 1.0 obsgp2 \ OBSNME OBSVAL WEIGHT OBGNME
ar10 12.3194 1.0 obsgp2 \ OBSNME OBSVAL WEIGHT OBGNME
ar11 10.6003 1.0 obsgp2 \ OBSNME OBSVAL WEIGHT OBGNME
ar12 7.00419 1.0 obsgp2 \ OBSNME OBSVAL WEIGHT OBGNME
ar13 3.44391 1.0 obsgp2 \ OBSNME OBSVAL WEIGHT OBGNME
ar14 1.58279 1.0 obsgp2 \ OBSNME OBSVAL WEIGHT OBGNME
ar15 1.1038 1.0 obsgp2 \ OBSNME OBSVAL WEIGHT OBGNME
ar16 1.03086 1.0 obsgp2 \ OBSNME OBSVAL WEIGHT OBGNME
ar17 1.01318 1.0 obsgp2 \ OBSNME OBSVAL WEIGHT OBGNME
ar18 1.00593 0.0 obsgp2 \ OBSNME OBSVAL WEIGHT OBGNME
ar19 1.00272 0.0 obsgp2 \ OBSNME OBSVAL WEIGHT OBGNME
* model command line
model.bat \ COMLINE
* model inputoutput \ Why also output?
ves1.tpl a_model.in1 \ TEMPFLE INFLE
ves2.tpl a_model.in2 \ TEMPFLE INFLE
* model output
ves1.ins a_model.ot1 \ INSFLE OUTFLE
ves2.ins a_model.ot2 \ INSFLE OUTFLE
ves3.ins a_model.ot3 \ INSFLE OUTFLE
* prior information
pi1 1.0 * h1 = 1.0 3.0 prgp1 \ PILBL PIFAC * PARNME + PIFAC * log(PARNME) ... = PIVAL WEIGHT OBGNME
pi2 1.0 * log(ro2) + 1.0 * log(h2) = 2.6026 2.0 prgp1 \ PILBL PIFAC * PARNME + PIFAC * log(PARNME) ... = PIVAL WEIGHT OBGNME
* regularization
125.0 130.0 0.1000000 \ PHIMLIM PHIMACCEPT [FRACPHIM]
1.0 1.0e-10 1.0e10 \ PHIMLIM PHIMACCEPT [FRACPHIM]
1.3 1.0e-2 1 \ PHIMLIM PHIMACCEPT [FRACPHIM]