pcf
* control data
             restart          estimation
        12     15344        12         0         2
         1         1              single               point
   2.000000E+01  -3.000000E+00   3.000000E-01   1.000000E-02        -7
   1.000000E+01   1.000000E+01   1.000000E-03
   1.000000E-01
   50  1.000000E-02         3         3   1.000000E-02         3
         0         0         0
* singular value decomposition
         1
  10000000    1.000000E-06
1
* parameter groups
z_s_gp         relative              1.0000000000E-01     0.0 switch                2.0000000000E+00      parabolic             1.0000000000E-05      5.0000000000E-01      smaller
alpha_p_gp             relative              1.0000000000E-01      0.0 switch                1.0000000000E+00      parabolic             1.0000000000E-05      5.0000000000E-01      smaller
alpha_m_gp             relative              1.0000000000E-01      0.0 switch                1.0000000000E+00      parabolic             1.0000000000E-05      5.0000000000E-01      smaller
n_p_gp                 relative              1.0000000000E-01      0.0 switch                1.0000000000E+00      parabolic             1.0000000000E-05      5.0000000000E-01      smaller
wr_p_gp                relative              1.0000000000E-01      0.0 switch                1.0000000000E+00      parabolic             1.0000000000E-05      5.0000000000E-01      smaller
por_p_gp               relative              1.0000000000E-01      0.0 switch                1.0000000000E+00      parabolic             1.0000000000E-05      5.0000000000E-01      smaller
por_m_gp               relative              1.0000000000E-01      0.0 switch                1.0000000000E+00      parabolic             1.0000000000E-05      5.0000000000E-01      smaller
perm_p_gp              relative              1.0000000000E-01      0.0 switch                1.0000000000E+00      parabolic             1.0000000000E-05      5.0000000000E-01      smaller
perm_m_gp              relative              1.0000000000E-01      0.0 switch                1.0000000000E+00      parabolic             1.0000000000E-05      5.0000000000E-01      smaller
pen_s_gp               relative              1.0000000000E-01      0.0 switch                1.0000000000E+00      parabolic             1.0000000000E-05      5.0000000000E-01      smaller
z_bg_gp                relative              1.0000000000E-01      0.0 switch                1.0000000000E+00      parabolic             1.0000000000E-05      5.0000000000E-01      smaller
b_bc_gp                relative              1.0000000000E-02      0.0 switch                1.0000000000E+00      parabolic             1.0000000000E-05      5.0000000000E-01      smaller
* parameter data
alpha_p               none                  factor                0.01         0.0025         0.0125       alpha_p_gp            1.0000000000E+00      0.0000000000E+00
alpha_m               none                  factor                0.00182491    0.000456229      0.0031936      alpha_m_gp            1.0000000000E+00      0.0000000000E+00
n_p                   none                  factor                1.5          1.025           2.05      n_p_gp                1.0000000000E+00      0.0000000000E+00
wr_p                  none                  factor                0.1          0.024            0.2      wr_p_gp               1.0000000000E+00      0.0000000000E+00
por_p                 none                  factor                0.63739          0.159           0.85      por_p_gp              1.0000000000E+00      0.0000000000E+00
por_m                 none                  factor                0.481031       0.120258       0.841804       por_m_gp              1.0000000000E+00      0.0000000000E+00
perm_p                none                  factor                5.34662e-11    1.33666e-11    9.35659e-11       perm_p_gp             1.0000000000E+00      0.0000000000E+00
perm_m                none                  factor                1e-13        2.5e-14       1.75e-13      perm_m_gp             1.0000000000E+00      0.0000000000E+00
pen_s                 none                  factor                0.02          0.005          0.035      pen_s_gp              1.0000000000E+00      0.0000000000E+00
z_bg                  none                  factor                0.04           0.01           0.07      z_bg_gp               1.0000000000E+00      0.0000000000E+00
z_s                   none                  factor                0.005        0.00125        0.00875      z_s_gp          1.0000000000E+00      0.0000000000E+00
b_bc                  none                  factor                2.6845000000E+02      2.6315000000E+02      2.7415000000E+02      b_bc_gp               1.0000000000E+00      0.0000000000E+00
* observation groups
temp
mois
* observation data
 stemp_0.04_0          260.6422       2.503535E-04  temp
 stemp_0.04_1          261.2884       2.503535E-04  temp
 stemp_0.04_2          261.3255       2.503535E-04  temp
 stemp_0.04_3          261.1522       2.503535E-04  temp
 stemp_0.04_4          260.7784       2.503535E-04  temp
 stemp_0.04_5          260.3231       2.503535E-04  temp
 stemp_0.04_6          260.3782       2.503535E-04  temp
 stemp_0.04_7          259.7585       2.503535E-04  temp
 stemp_0.04_8          259.4415       2.503535E-04  temp
 stemp_0.04_9          259.1726       2.503535E-04  temp
 stemp_0.04_10         259.3997       2.503535E-04  temp
 stemp_0.04_11         258.8128       2.503535E-04  temp
 stemp_0.04_12         258.3265       2.503535E-04  temp
 stemp_0.04_13         258.0017       2.503535E-04  temp
 stemp_0.04_14         258.5859       2.503535E-04  temp
 stemp_0.04_15         258.8353       2.503535E-04  temp
 stemp_0.04_16         259.0194       2.503535E-04  temp
 stemp_0.04_17         259.0142       2.503535E-04  temp
 stemp_0.04_18         259.1731       2.503535E-04  temp
 stemp_0.04_19         258.7783       2.503535E-04  temp
 stemp_0.04_20         258.1565       2.503535E-04  temp
 stemp_0.04_21         257.2050       2.503535E-04  temp
 stemp_0.04_22         255.8992       2.503535E-04  temp
 stemp_0.04_23         255.3265       2.503535E-04  temp
 stemp_0.04_24         255.2708       2.503535E-04  temp
 stemp_0.04_25         255.3444       2.503535E-04  temp
 stemp_0.04_26         256.3877       2.503535E-04  temp
 stemp_0.04_27         257.0276       2.503535E-04  temp
 stemp_0.04_28         257.2752       2.503535E-04  temp
 stemp_0.04_29         257.6142       2.503535E-04  temp
 stemp_0.04_30         257.8523       2.503535E-04  temp
 stemp_0.04_31         258.3584       2.503535E-04  temp
 stemp_0.04_32         258.1115       2.503535E-04  temp
 stemp_0.04_33         258.1543       2.503535E-04  temp
 stemp_0.04_34         258.0240       2.503535E-04  temp
 stemp_0.04_35         257.3147       2.503535E-04  temp
 stemp_0.04_36         257.6429       2.503535E-04  temp
 stemp_0.04_37         258.2466       2.503535E-04  temp
 stemp_0.04_38         258.7183       2.503535E-04  temp
 stemp_0.04_39         259.7881       2.503535E-04  temp
 stemp_0.04_40         260.7248       2.503535E-04  temp
 stemp_0.04_41         261.4470       2.503535E-04  temp
 stemp_0.04_42         261.6849       2.503535E-04  temp
 stemp_0.04_43         261.0959       2.503535E-04  temp
 stemp_0.04_44         260.2286       2.503535E-04  temp
 stemp_0.04_45         259.7093       2.503535E-04  temp
 stemp_0.04_46         259.4660       2.503535E-04  temp
 stemp_0.04_47         259.7737       2.503535E-04  temp
 stemp_0.04_48         259.1318       2.503535E-04  temp
 stemp_0.04_49         257.7107       2.503535E-04  temp
 stemp_0.04_50         258.4454       2.503535E-04  temp
 stemp_0.04_51         260.2622       2.503535E-04  temp
 stemp_0.04_52         260.3295       2.503535E-04  temp
 stemp_0.04_53         259.2512       2.503535E-04  temp
 stemp_0.04_54         258.8309       2.503535E-04  temp
 stemp_0.04_55         259.5171       2.503535E-04  temp
 stemp_0.04_56         260.7429       2.503535E-04  temp
 stemp_0.04_57         261.9282       2.503535E-04  temp
 stemp_0.04_58         262.9612       2.503535E-04  temp
 stemp_0.04_59         263.9252       2.503535E-04  temp
 stemp_0.04_60         263.8185       2.503535E-04  temp
 stemp_0.04_61         263.7587       2.503535E-04  temp
 stemp_0.04_62         264.8083       2.503535E-04  temp
 stemp_0.04_63         264.1016       2.503535E-04  temp
 stemp_0.04_64         264.3032       2.503535E-04  temp
 stemp_0.04_65         265.5906       2.503535E-04  temp
 stemp_0.04_66         265.9220       2.503535E-04  temp
 stemp_0.04_67         265.5901       2.503535E-04  temp
 stemp_0.04_68         264.0286       2.503535E-04  temp
 stemp_0.04_69         263.0361       2.503535E-04  temp
 stemp_0.04_70         264.5615       2.503535E-04  temp
 stemp_0.04_71         265.3491       2.503535E-04  temp
 stemp_0.04_72         264.9164       2.503535E-04  temp
 stemp_0.04_73         266.0401       2.503535E-04  temp
 stemp_0.04_74         266.6398       2.503535E-04  temp
 stemp_0.04_75         267.2621       2.503535E-04  temp
 stemp_0.04_76         266.6132       2.503535E-04  temp
 stemp_0.04_77         265.6243       2.503535E-04  temp
 stemp_0.04_78         266.2135       2.503535E-04  temp
 stemp_0.04_79         266.3919       2.503535E-04  temp
 stemp_0.04_80         266.6221       2.503535E-04  temp
 stemp_0.04_81         266.3259       2.503535E-04  temp
 stemp_0.04_82         265.8073       2.503535E-04  temp
 stemp_0.04_83         265.1075       2.503535E-04  temp
 stemp_0.04_84         264.6348       2.503535E-04  temp
 stemp_0.04_85         264.4992       2.503535E-04  temp
 stemp_0.04_86         264.8343       2.503535E-04  temp
 stemp_0.04_87         265.5735       2.503535E-04  temp
 stemp_0.04_88         265.7525       2.503535E-04  temp
 stemp_0.04_89         265.8740       2.503535E-04  temp
 stemp_0.04_90         266.0267       2.503535E-04  temp
 stemp_0.04_91         266.1018       2.503535E-04  temp
 stemp_0.04_92         267.3877       2.503535E-04  temp
 stemp_0.04_93         269.0521       2.503535E-04  temp
 stemp_0.04_94         270.1008       2.503535E-04  temp
 stemp_0.04_95         269.9815       2.503535E-04  temp
 stemp_0.04_96         269.8499       2.503535E-04  temp
 stemp_0.04_97         269.3528       2.503535E-04  temp
 stemp_0.04_98         268.4995       2.503535E-04  temp
 stemp_0.04_99         269.0342       2.503535E-04  temp
 stemp_0.04_100        270.1398       2.503535E-04  temp
 stemp_0.04_101        269.4614       2.503535E-04  temp
 stemp_0.04_102        269.0046       2.503535E-04  temp
 stemp_0.04_103        270.0126       2.503535E-04  temp
 stemp_0.04_104        271.0169       2.503535E-04  temp
 stemp_0.04_105        270.8028       2.503535E-04  temp
 stemp_0.04_106        270.1059       2.503535E-04  temp
 stemp_0.04_107        268.7385       2.503535E-04  temp
 stemp_0.04_108        268.1435       2.503535E-04  temp
 stemp_0.04_109        268.3832       2.503535E-04  temp
 stemp_0.04_110        268.8164       2.503535E-04  temp
 stemp_0.04_111        268.8719       2.503535E-04  temp
 stemp_0.04_112        269.1462       2.503535E-04  temp
 stemp_0.04_113        268.8423       2.503535E-04  temp
 stemp_0.04_114        268.8124       2.503535E-04  temp
 stemp_0.04_115        269.0974       2.503535E-04  temp
 stemp_0.04_116        268.9289       2.503535E-04  temp
 stemp_0.04_117        268.8130       2.503535E-04  temp
 stemp_0.04_118        269.1563       2.503535E-04  temp
 stemp_0.04_119        269.6102       2.503535E-04  temp
 stemp_0.04_120        270.4184       2.503535E-04  temp
 stemp_0.04_121        271.0252       2.503535E-04  temp
 stemp_0.04_122        270.2244       2.503535E-04  temp
 stemp_0.04_123        270.6433       2.503535E-04  temp
 stemp_0.04_124        271.2967       2.503535E-04  temp
 stemp_0.04_125        271.6958       2.503535E-04  temp
 stemp_0.04_126        272.0667       2.503535E-04  temp
 stemp_0.04_127        272.1569       2.503535E-04  temp
 stemp_0.04_128        272.2996       2.503535E-04  temp
 stemp_0.04_129        272.5481       2.503535E-04  temp
 stemp_0.04_130        272.8848       2.503535E-04  temp
 stemp_0.04_131        273.2517       2.503535E-04  temp
 stemp_0.04_132        273.2087       2.503535E-04  temp
 stemp_0.04_133        272.7135       2.503535E-04  temp
 stemp_0.04_134        272.6865       2.503535E-04  temp
 stemp_0.04_135        272.6782       2.503535E-04  temp
 stemp_0.04_136        272.7012       2.503535E-04  temp
 stemp_0.04_137        273.1089       2.503535E-04  temp
 stemp_0.04_138        272.9640       2.503535E-04  temp
 stemp_0.04_139        273.4366       2.503535E-04  temp
 stemp_0.04_140        272.7154       2.503535E-04  temp
 stemp_0.04_141        272.7095       2.503535E-04  temp
 stemp_0.04_142        272.7060       2.503535E-04  temp
 stemp_0.04_143        272.6922       2.503535E-04  temp
 stemp_0.04_144        272.6905       2.503535E-04  temp
 stemp_0.04_145        272.7073       2.503535E-04  temp
 stemp_0.04_146        272.6925       2.503535E-04  temp
 stemp_0.04_147        272.6990       2.503535E-04  temp
 stemp_0.04_148        272.7179       2.503535E-04  temp
 stemp_0.04_149        272.7317       2.503535E-04  temp
 stemp_0.04_150        272.7305       2.503535E-04  temp
 stemp_0.04_151        272.7303       2.503535E-04  temp
 stemp_0.04_152        272.7279       2.503535E-04  temp
 stemp_0.04_153        272.7269       2.503535E-04  temp
 stemp_0.04_154        272.7269       2.503535E-04  temp
 stemp_0.04_155        272.7254       2.503535E-04  temp
 stemp_0.04_156        272.9791       2.503535E-04  temp
 stemp_0.04_157        272.9630       2.503535E-04  temp
 stemp_0.04_158        274.0920       2.503535E-04  temp
 stemp_0.04_159        274.3000       2.503535E-04  temp
 stemp_0.04_160        275.2523       2.503535E-04  temp
 stemp_0.04_161        274.5942       2.503535E-04  temp
 stemp_0.04_162        273.4343       2.503535E-04  temp
 stemp_0.04_163        275.6356       2.503535E-04  temp
 stemp_0.04_164        276.1764       2.503535E-04  temp
 stemp_0.04_165        275.5305       2.503535E-04  temp
 stemp_0.04_166        275.1605       2.503535E-04  temp
 stemp_0.04_167        276.8637       2.503535E-04  temp
 stemp_0.04_168        277.3925       2.503535E-04  temp
 stemp_0.04_169        277.2808       2.503535E-04  temp
 stemp_0.04_170        277.9391       2.503535E-04  temp
 stemp_0.04_171        278.4953       2.503535E-04  temp
 stemp_0.04_172        278.9607       2.503535E-04  temp
 stemp_0.04_173        277.5832       2.503535E-04  temp
 stemp_0.04_174        277.1105       2.503535E-04  temp
 stemp_0.04_175        277.3246       2.503535E-04  temp
 stemp_0.04_176        276.6009       2.503535E-04  temp
 stemp_0.04_177        277.9881       2.503535E-04  temp
 stemp_0.04_178        278.1971       2.503535E-04  temp
 stemp_0.04_179        278.2377       2.503535E-04  temp
 stemp_0.04_180        278.2325       2.503535E-04  temp
 stemp_0.04_181        277.7550       2.503535E-04  temp
 stemp_0.04_182        277.8719       2.503535E-04  temp
 stemp_0.04_183        276.9988       2.503535E-04  temp
 stemp_0.04_184        278.9223       2.503535E-04  temp
 stemp_0.04_185        280.9022       2.503535E-04  temp
 stemp_0.04_186        282.1959       2.503535E-04  temp
 stemp_0.04_187        282.2921       2.503535E-04  temp
 stemp_0.04_188        282.9179       2.503535E-04  temp
 stemp_0.04_189        281.8124       2.503535E-04  temp
 stemp_0.04_190        281.3353       2.503535E-04  temp
 stemp_0.04_191        280.5291       2.503535E-04  temp
 stemp_0.04_192        278.6534       2.503535E-04  temp
 stemp_0.04_193        279.6882       2.503535E-04  temp
 stemp_0.04_194        279.8552       2.503535E-04  temp
 stemp_0.04_195        279.3192       2.503535E-04  temp
 stemp_0.04_196        279.7512       2.503535E-04  temp
 stemp_0.04_197        280.6219       2.503535E-04  temp
 stemp_0.04_198        279.5577       2.503535E-04  temp
 stemp_0.04_199        279.8601       2.503535E-04  temp
 stemp_0.04_200        281.6848       2.503535E-04  temp
 stemp_0.04_201        282.2242       2.503535E-04  temp
 stemp_0.04_202        280.2226       2.503535E-04  temp
 stemp_0.04_203        282.0579       2.503535E-04  temp
 stemp_0.04_204        279.7237       2.503535E-04  temp
 stemp_0.04_205        280.5487       2.503535E-04  temp
 stemp_0.04_206        281.2653       2.503535E-04  temp
 stemp_0.04_207        280.8960       2.503535E-04  temp
 stemp_0.04_208        280.7478       2.503535E-04  temp
 stemp_0.04_209        280.3302       2.503535E-04  temp
 stemp_0.04_210        281.4321       2.503535E-04  temp
 stemp_0.04_211        282.9992       2.503535E-04  temp
 stemp_0.04_212        283.4543       2.503535E-04  temp
 stemp_0.04_213        283.5799       2.503535E-04  temp
 stemp_0.04_214        282.3433       2.503535E-04  temp
 stemp_0.04_215        282.5928       2.503535E-04  temp
 stemp_0.04_216        282.5570       2.503535E-04  temp
 stemp_0.04_217        283.4523       2.503535E-04  temp
 stemp_0.04_218        284.1040       2.503535E-04  temp
 stemp_0.04_219        285.1003       2.503535E-04  temp
 stemp_0.04_220        285.7988       2.503535E-04  temp
 stemp_0.04_221        285.7662       2.503535E-04  temp
 stemp_0.04_222        282.6406       2.503535E-04  temp
 stemp_0.04_223        282.1086       2.503535E-04  temp
 stemp_0.04_224        282.0749       2.503535E-04  temp
 stemp_0.04_225        282.4388       2.503535E-04  temp
 stemp_0.04_226        281.8940       2.503535E-04  temp
 stemp_0.04_227        282.9887       2.503535E-04  temp
 stemp_0.04_228        285.6069       2.503535E-04  temp
 stemp_0.04_229        285.7871       2.503535E-04  temp
 stemp_0.04_230        283.1528       2.503535E-04  temp
 stemp_0.04_231        282.1263       2.503535E-04  temp
 stemp_0.04_232        284.1936       2.503535E-04  temp
 stemp_0.04_233        283.7884       2.503535E-04  temp
 stemp_0.04_234        284.2902       2.503535E-04  temp
 stemp_0.04_235        284.3041       2.503535E-04  temp
 stemp_0.04_236        281.9748       2.503535E-04  temp
 stemp_0.04_237        281.1965       2.503535E-04  temp
 stemp_0.04_238        282.5826       2.503535E-04  temp
 stemp_0.04_239        283.2437       2.503535E-04  temp
 stemp_0.04_240        283.2896       2.503535E-04  temp
 stemp_0.04_241        279.4255       2.503535E-04  temp
 stemp_0.04_242        278.5328       2.503535E-04  temp
 stemp_0.04_243        280.5262       2.503535E-04  temp
 stemp_0.04_244        278.2858       2.503535E-04  temp
 stemp_0.04_245        277.4016       2.503535E-04  temp
 stemp_0.04_246        278.1212       2.503535E-04  temp
 stemp_0.04_247        278.5556       2.503535E-04  temp
 stemp_0.04_248        274.9897       2.503535E-04  temp
 stemp_0.04_249        274.6061       2.503535E-04  temp
 stemp_0.04_250        275.9814       2.503535E-04  temp
 stemp_0.04_251        274.9464       2.503535E-04  temp
 stemp_0.04_252        273.6863       2.503535E-04  temp
 stemp_0.04_253        273.5208       2.503535E-04  temp
 stemp_0.04_254        273.5649       2.503535E-04  temp
 stemp_0.04_255        274.2143       2.503535E-04  temp
 stemp_0.04_256        276.2223       2.503535E-04  temp
 stemp_0.04_257        277.6876       2.503535E-04  temp
 stemp_0.04_258        278.4937       2.503535E-04  temp
 stemp_0.04_259        275.6506       2.503535E-04  temp
 stemp_0.04_260        275.1672       2.503535E-04  temp
 stemp_0.04_261        276.0976       2.503535E-04  temp
 stemp_0.04_262        274.1994       2.503535E-04  temp
 stemp_0.04_263        274.0038       2.503535E-04  temp
 stemp_0.04_264        275.0048       2.503535E-04  temp
 stemp_0.04_265        276.2755       2.503535E-04  temp
 stemp_0.04_266        275.4686       2.503535E-04  temp
 stemp_0.04_267        274.5736       2.503535E-04  temp
 stemp_0.04_268        274.5128       2.503535E-04  temp
 stemp_0.04_269        275.3435       2.503535E-04  temp
 stemp_0.04_270        276.3101       2.503535E-04  temp
 stemp_0.04_271        275.4343       2.503535E-04  temp
 stemp_0.04_272        275.4683       2.503535E-04  temp
 stemp_0.04_273        275.2444       2.503535E-04  temp
 stemp_0.04_274        275.0474       2.503535E-04  temp
 stemp_0.04_275        274.7800       2.503535E-04  temp
 stemp_0.04_276        274.5184       2.503535E-04  temp
 stemp_0.04_277        273.5466       2.503535E-04  temp
 stemp_0.04_278        273.0760       2.503535E-04  temp
 stemp_0.04_279        272.8821       2.503535E-04  temp
 stemp_0.04_280        272.6939       2.503535E-04  temp
 stemp_0.04_281        272.5545       2.503535E-04  temp
 stemp_0.04_282        272.6634       2.503535E-04  temp
 stemp_0.04_283        272.6075       2.503535E-04  temp
 stemp_0.04_284        272.6826       2.503535E-04  temp
 stemp_0.04_285        272.6869       2.503535E-04  temp
 stemp_0.04_286        272.6444       2.503535E-04  temp
 stemp_0.04_287        272.6246       2.503535E-04  temp
 stemp_0.04_288        272.6759       2.503535E-04  temp
 stemp_0.04_289        272.6709       2.503535E-04  temp
 stemp_0.04_290        272.6454       2.503535E-04  temp
 stemp_0.04_291        272.5805       2.503535E-04  temp
 stemp_0.04_292        272.3754       2.503535E-04  temp
 stemp_0.04_293        272.3361       2.503535E-04  temp
 stemp_0.04_294        272.5313       2.503535E-04  temp
 stemp_0.04_295        272.4842       2.503535E-04  temp
 stemp_0.04_296        272.4222       2.503535E-04  temp
 stemp_0.04_297        272.4232       2.503535E-04  temp
 stemp_0.04_298        272.2808       2.503535E-04  temp
 stemp_0.04_299        272.0948       2.503535E-04  temp
 stemp_0.04_300        272.0762       2.503535E-04  temp
 stemp_0.04_301        272.1580       2.503535E-04  temp
 stemp_0.04_302        271.5844       2.503535E-04  temp
 stemp_0.04_303        270.7235       2.503535E-04  temp
 stemp_0.04_304        270.2019       2.503535E-04  temp
 stemp_0.04_305        269.8617       2.503535E-04  temp
 stemp_0.04_306        269.5375       2.503535E-04  temp
 stemp_0.04_307        269.5388       2.503535E-04  temp
 stemp_0.04_308        269.1378       2.503535E-04  temp
 stemp_0.04_309        268.8667       2.503535E-04  temp
 stemp_0.04_310        269.7181       2.503535E-04  temp
 stemp_0.04_311        269.7877       2.503535E-04  temp
 stemp_0.04_312        269.2810       2.503535E-04  temp
 stemp_0.04_313        269.1324       2.503535E-04  temp
 stemp_0.04_314        267.5129       2.503535E-04  temp
 stemp_0.04_315        266.8702       2.503535E-04  temp
 stemp_0.04_316        266.5883       2.503535E-04  temp
 stemp_0.04_317        266.3710       2.503535E-04  temp
 stemp_0.04_318        266.5288       2.503535E-04  temp
 stemp_0.04_319        266.6744       2.503535E-04  temp
 stemp_0.04_320        266.5109       2.503535E-04  temp
 stemp_0.04_321        266.5552       2.503535E-04  temp
 stemp_0.04_322        266.5798       2.503535E-04  temp
 stemp_0.04_323        266.0435       2.503535E-04  temp
 stemp_0.04_324        265.9557       2.503535E-04  temp
 stemp_0.04_325        266.6144       2.503535E-04  temp
 stemp_0.04_326        266.2462       2.503535E-04  temp
 stemp_0.04_327        267.1019       2.503535E-04  temp
 stemp_0.04_328        267.1112       2.503535E-04  temp
 stemp_0.04_329        266.6045       2.503535E-04  temp
 stemp_0.04_330        264.9005       2.503535E-04  temp
 stemp_0.04_331        263.2360       2.503535E-04  temp
 stemp_0.04_332        263.5501       2.503535E-04  temp
 stemp_0.04_333        262.7032       2.503535E-04  temp
 stemp_0.04_334        261.8657       2.503535E-04  temp
 stemp_0.04_335        261.7105       2.503535E-04  temp
 stemp_0.04_336        262.7760       2.503535E-04  temp
 stemp_0.04_337        262.8947       2.503535E-04  temp
 stemp_0.04_338        263.7196       2.503535E-04  temp
 stemp_0.04_339        263.6229       2.503535E-04  temp
 stemp_0.04_340        264.4829       2.503535E-04  temp
 stemp_0.04_341        264.4072       2.503535E-04  temp
 stemp_0.04_342        265.5988       2.503535E-04  temp
 stemp_0.04_343        265.9974       2.503535E-04  temp
 stemp_0.04_344        265.3558       2.503535E-04  temp
 stemp_0.04_345        265.2583       2.503535E-04  temp
 stemp_0.04_346        264.9800       2.503535E-04  temp
 stemp_0.04_347        264.6995       2.503535E-04  temp
 stemp_0.04_348        263.2973       2.503535E-04  temp
 stemp_0.04_349        263.0577       2.503535E-04  temp
 stemp_0.04_350        262.4848       2.503535E-04  temp
 stemp_0.04_351        262.7784       2.503535E-04  temp
 stemp_0.04_352        262.3520       2.503535E-04  temp
 stemp_0.04_353        263.1828       2.503535E-04  temp
 stemp_0.04_354        262.8236       2.503535E-04  temp
 stemp_0.04_355        262.1674       2.503535E-04  temp
 stemp_0.04_356        261.8073       2.503535E-04  temp
 stemp_0.04_357        262.0643       2.503535E-04  temp
 stemp_0.04_358        262.7485       2.503535E-04  temp
 stemp_0.04_359        261.4698       2.503535E-04  temp
 stemp_0.04_360        259.9898       2.503535E-04  temp
 stemp_0.04_361        258.8441       2.503535E-04  temp
 stemp_0.04_362        258.9565       2.503535E-04  temp
 stemp_0.04_363        259.1844       2.503535E-04  temp
 stemp_0.04_364        259.9625       2.503535E-04  temp
 stemp_0.04_365        260.9203       2.503535E-04  temp
 stemp_0.04_366        261.0233       2.503535E-04  temp
 stemp_0.04_367        261.0067       2.503535E-04  temp
 stemp_0.04_368        260.8549       2.503535E-04  temp
 stemp_0.04_369        261.0327       2.503535E-04  temp
 stemp_0.04_370        261.3470       2.503535E-04  temp
 stemp_0.04_371        261.0806       2.503535E-04  temp
 stemp_0.04_372        261.1825       2.503535E-04  temp
 stemp_0.04_373        260.6165       2.503535E-04  temp
 stemp_0.04_374        260.0583       2.503535E-04  temp
 stemp_0.04_375        260.6804       2.503535E-04  temp
 stemp_0.04_376        259.4002       2.503535E-04  temp
 stemp_0.04_377        258.0874       2.503535E-04  temp
 stemp_0.04_378        258.4664       2.503535E-04  temp
 stemp_0.04_379        258.4739       2.503535E-04  temp
 stemp_0.04_380        258.4656       2.503535E-04  temp
 stemp_0.04_381        257.2475       2.503535E-04  temp
 stemp_0.04_382        256.8807       2.503535E-04  temp
 stemp_0.04_383        257.2833       2.503535E-04  temp
 stemp_0.04_384        256.7728       2.503535E-04  temp
 stemp_0.04_385        257.1543       2.503535E-04  temp
 stemp_0.04_386        257.7903       2.503535E-04  temp
 stemp_0.04_387        258.6003       2.503535E-04  temp
 stemp_0.04_388        259.1631       2.503535E-04  temp
 stemp_0.04_389        260.0054       2.503535E-04  temp
 stemp_0.04_390        261.4232       2.503535E-04  temp
 stemp_0.04_391        262.3889       2.503535E-04  temp
 stemp_0.04_392        262.8389       2.503535E-04  temp
 stemp_0.04_393        263.0507       2.503535E-04  temp
 stemp_0.04_394        261.9409       2.503535E-04  temp
 stemp_0.04_395        261.0121       2.503535E-04  temp
 stemp_0.04_396        260.3410       2.503535E-04  temp
 stemp_0.04_397        260.1183       2.503535E-04  temp
 stemp_0.04_398        261.2094       2.503535E-04  temp
 stemp_0.04_399        262.1231       2.503535E-04  temp
 stemp_0.04_400        263.8223       2.503535E-04  temp
 stemp_0.04_401        264.9146       2.503535E-04  temp
 stemp_0.04_402        265.2462       2.503535E-04  temp
 stemp_0.04_403        262.0612       2.503535E-04  temp
 stemp_0.04_404        260.9578       2.503535E-04  temp
 stemp_0.04_405        260.2153       2.503535E-04  temp
 stemp_0.04_406        259.5873       2.503535E-04  temp
 stemp_0.04_407        259.2258       2.503535E-04  temp
 stemp_0.04_408        259.4401       2.503535E-04  temp
 stemp_0.04_409        260.1085       2.503535E-04  temp
 stemp_0.04_410        260.1823       2.503535E-04  temp
 stemp_0.04_411        261.2820       2.503535E-04  temp
 stemp_0.04_412        262.1871       2.503535E-04  temp
 stemp_0.04_413        262.7193       2.503535E-04  temp
 stemp_0.04_414        263.7728       2.503535E-04  temp
 stemp_0.04_415        265.4898       2.503535E-04  temp
 stemp_0.04_416        266.7219       2.503535E-04  temp
 stemp_0.04_417        265.5545       2.503535E-04  temp
 stemp_0.04_418        264.3637       2.503535E-04  temp
 stemp_0.04_419        263.4216       2.503535E-04  temp
 stemp_0.04_420        263.1912       2.503535E-04  temp
 stemp_0.04_421        262.9610       2.503535E-04  temp
 stemp_0.04_422        262.1898       2.503535E-04  temp
 stemp_0.04_423        261.5663       2.503535E-04  temp
 stemp_0.04_424        261.9117       2.503535E-04  temp
 stemp_0.04_425        261.3978       2.503535E-04  temp
 stemp_0.04_426        261.2585       2.503535E-04  temp
 stemp_0.04_427        261.0341       2.503535E-04  temp
 stemp_0.04_428        261.0553       2.503535E-04  temp
 stemp_0.04_429        261.3179       2.503535E-04  temp
 stemp_0.04_430        261.3642       2.503535E-04  temp
 stemp_0.04_431        261.3342       2.503535E-04  temp
 stemp_0.04_432        261.2200       2.503535E-04  temp
 stemp_0.04_433        261.2840       2.503535E-04  temp
 stemp_0.04_434        261.6385       2.503535E-04  temp
 stemp_0.04_435        262.0820       2.503535E-04  temp
 stemp_0.04_436        262.2433       2.503535E-04  temp
 stemp_0.04_437        262.5278       2.503535E-04  temp
 stemp_0.04_438        262.6594       2.503535E-04  temp
 stemp_0.04_439        262.8206       2.503535E-04  temp