pcf
* control data
             restart          estimation
        12      5124        12         0         2
         1         1              single               point
   2.000000E+01  -3.000000E+00   3.000000E-01   1.000000E-02        -7
   1.000000E+01   1.000000E+01   1.000000E-03
   1.000000E-01
        -1   1.000000E-02         3         3   1.000000E-02         3
         0         0         0
* singular value decomposition
         1
  10000000    1.000000E-06
1
* parameter groups
alpha_p_gp             relative              1.0000000000E-01      0.0 switch                1.0000000000E+00      parabolic             1.0000000000E-05      5.0000000000E-01      smaller              
alpha_m_gp             relative              1.0000000000E-01      0.0 switch                1.0000000000E+00      parabolic             1.0000000000E-05      5.0000000000E-01      smaller              
n_p_gp                 relative              1.0000000000E-01      0.0 switch                1.0000000000E+00      parabolic             1.0000000000E-05      5.0000000000E-01      smaller              
wr_p_gp                relative              1.0000000000E-01      0.0 switch                1.0000000000E+00      parabolic             1.0000000000E-05      5.0000000000E-01      smaller              
por_p_gp               relative              1.0000000000E-01      0.0 switch                1.0000000000E+00      parabolic             1.0000000000E-05      5.0000000000E-01      smaller              
por_m_gp               relative              1.0000000000E-01      0.0 switch                1.0000000000E+00      parabolic             1.0000000000E-05      5.0000000000E-01      smaller              
perm_p_gp              relative              1.0000000000E-01      0.0 switch                1.0000000000E+00      parabolic             1.0000000000E-05      5.0000000000E-01      smaller              
perm_m_gp              relative              1.0000000000E-01      0.0 switch                1.0000000000E+00      parabolic             1.0000000000E-05      5.0000000000E-01      smaller              
pen_s_gp               relative              1.0000000000E-01      0.0 switch                1.0000000000E+00      parabolic             1.0000000000E-05      5.0000000000E-01      smaller              
z_bg_gp                relative              1.0000000000E-01      0.0 switch                1.0000000000E+00      parabolic             1.0000000000E-05      5.0000000000E-01      smaller              
z_s_gp                 relative              1.0000000000E-01      0.0 switch                1.0000000000E+00      parabolic             1.0000000000E-05      5.0000000000E-01      smaller              
b_bc_gp                relative              1.0000000000E-02      0.0 switch                1.0000000000E+00      parabolic             1.0000000000E-05      5.0000000000E-01      smaller              
* parameter data
alpha_p               none                  factor                1.0000000000E-02      2.5000000000E-03      1.2500000000E-02      alpha_p_gp            1.0000000000E+00      0.0000000000E+00                
alpha_m               none                  factor                1.8249143534E-03      4.5622858836E-04      3.1936001185E-03      alpha_m_gp            1.0000000000E+00      0.0000000000E+00                
n_p                   none                  factor                1.5000000000E+00      1.0250000000E+00      2.0500000000E+00      n_p_gp                1.0000000000E+00      0.0000000000E+00                
wr_p                  none                  factor                1.0000000000E-01      2.4000000000E-02      2.0000000000E-01      wr_p_gp               1.0000000000E+00      0.0000000000E+00                
por_p                 none                  factor                6.3739000000E-01      1.5900000000E-01      8.5000000000E-01      por_p_gp              1.0000000000E+00      0.0000000000E+00                
por_m                 none                  factor                4.8103076529E-01      1.2025769132E-01      8.4180383926E-01      por_m_gp              1.0000000000E+00      0.0000000000E+00                
perm_p                none                  factor                5.3466221272E-11      1.3366555318E-11      9.3565887226E-11      perm_p_gp             1.0000000000E+00      0.0000000000E+00                
perm_m                none                  factor                1.0000000000E-13      2.5000000000E-14      1.7500000000E-13      perm_m_gp             1.0000000000E+00      0.0000000000E+00                
pen_s                 none                  factor                2.0000000000E-02      5.0000000000E-03      3.5000000000E-02      pen_s_gp              1.0000000000E+00      0.0000000000E+00                
z_bg                  none                  factor                4.0000000000E-02      1.0000000000E-02      7.0000000000E-02      z_bg_gp               1.0000000000E+00      0.0000000000E+00                
z_s                   none                  factor                5.0000000000E-03      1.2500000000E-03      8.7500000000E-03      z_s_gp                1.0000000000E+00      0.0000000000E+00                
b_bc                  none                  factor                2.6845000000E+02      2.6315000000E+02      2.7415000000E+02      b_bc_gp               1.0000000000E+00      0.0000000000E+00                
* observation groups
temp                 
mois                 
* observation data
stemp_0.04_0          2.6064215278E+02      1.9516003123E-04      temp                 
stemp_0.04_1          2.6128840278E+02      1.9516003123E-04      temp                 
stemp_0.04_2          2.6132548611E+02      1.9516003123E-04      temp                 
stemp_0.04_3          2.6115215278E+02      1.9516003123E-04      temp                 
stemp_0.04_4          2.6077840278E+02      1.9516003123E-04      temp                 
stemp_0.04_5          2.6032305556E+02      1.9516003123E-04      temp                 
stemp_0.04_6          2.6037819444E+02      1.9516003123E-04      temp                 
stemp_0.04_7          2.5975854167E+02      1.9516003123E-04      temp                 
stemp_0.04_8          2.5944145833E+02      1.9516003123E-04      temp                 
stemp_0.04_9          2.5917256944E+02      1.9516003123E-04      temp                 
stemp_0.04_10         2.5939972222E+02      1.9516003123E-04      temp                 
stemp_0.04_11         2.5881284722E+02      1.9516003123E-04      temp                 
stemp_0.04_12         2.5832645833E+02      1.9516003123E-04      temp                 
stemp_0.04_13         2.5800166667E+02      1.9516003123E-04      temp                 
stemp_0.04_14         2.5858590278E+02      1.9516003123E-04      temp                 
stemp_0.04_15         2.5883534722E+02      1.9516003123E-04      temp                 
stemp_0.04_16         2.5901944444E+02      1.9516003123E-04      temp                 
stemp_0.04_17         2.5901423611E+02      1.9516003123E-04      temp                 
stemp_0.04_18         2.5917312500E+02      1.9516003123E-04      temp                 
stemp_0.04_19         2.5877826389E+02      1.9516003123E-04      temp                 
stemp_0.04_20         2.5815645833E+02      1.9516003123E-04      temp                 
stemp_0.04_21         2.5720500000E+02      1.9516003123E-04      temp                 
stemp_0.04_22         2.5589923611E+02      1.9516003123E-04      temp                 
stemp_0.04_23         2.5532645833E+02      1.9516003123E-04      temp                 
stemp_0.04_24         2.5527076389E+02      1.9516003123E-04      temp                 
stemp_0.04_25         2.5534437500E+02      1.9516003123E-04      temp                 
stemp_0.04_26         2.5638770833E+02      1.9516003123E-04      temp                 
stemp_0.04_27         2.5702756944E+02      1.9516003123E-04      temp                 
stemp_0.04_28         2.5727520833E+02      1.9516003123E-04      temp                 
stemp_0.04_29         2.5761423611E+02      1.9516003123E-04      temp                 
stemp_0.04_30         2.5785229167E+02      1.9516003123E-04      temp                 
stemp_0.04_31         2.5835840278E+02      1.9516003123E-04      temp                 
stemp_0.04_32         2.5811145833E+02      1.9516003123E-04      temp                 
stemp_0.04_33         2.5815430556E+02      1.9516003123E-04      temp                 
stemp_0.04_34         2.5802395833E+02      1.9516003123E-04      temp                 
stemp_0.04_35         2.5731465278E+02      1.9516003123E-04      temp                 
stemp_0.04_36         2.5764291667E+02      1.9516003123E-04      temp                 
stemp_0.04_37         2.5824659722E+02      1.9516003123E-04      temp                 
stemp_0.04_38         2.5871833333E+02      1.9516003123E-04      temp                 
stemp_0.04_39         2.5978805556E+02      1.9516003123E-04      temp                 
stemp_0.04_40         2.6072479167E+02      1.9516003123E-04      temp                 
stemp_0.04_41         2.6144701389E+02      1.9516003123E-04      temp                 
stemp_0.04_42         2.6168486111E+02      1.9516003123E-04      temp                 
stemp_0.04_43         2.6109590278E+02      1.9516003123E-04      temp                 
stemp_0.04_44         2.6022861111E+02      1.9516003123E-04      temp                 
stemp_0.04_45         2.5970930556E+02      1.9516003123E-04      temp                 
stemp_0.04_46         2.5946604167E+02      1.9516003123E-04      temp                 
stemp_0.04_47         2.5977368056E+02      1.9516003123E-04      temp                 
stemp_0.04_48         2.5913180556E+02      1.9516003123E-04      temp                 
stemp_0.04_49         2.5771069444E+02      1.9516003123E-04      temp                 
stemp_0.04_50         2.5844541667E+02      1.9516003123E-04      temp                 
stemp_0.04_51         2.6026222222E+02      1.9516003123E-04      temp                 
stemp_0.04_52         2.6032951389E+02      1.9516003123E-04      temp                 
stemp_0.04_53         2.5925118056E+02      1.9516003123E-04      temp                 
stemp_0.04_54         2.5883090278E+02      1.9516003123E-04      temp                 
stemp_0.04_55         2.5951708333E+02      1.9516003123E-04      temp                 
stemp_0.04_56         2.6074291667E+02      1.9516003123E-04      temp                 
stemp_0.04_57         2.6192822917E+02      1.9516003123E-04      temp                 
stemp_0.04_58         2.6296122917E+02      1.9516003123E-04      temp                 
stemp_0.04_59         2.6392519444E+02      1.9516003123E-04      temp                 
stemp_0.04_60         2.6381848611E+02      1.9516003123E-04      temp                 
stemp_0.04_61         2.6375872222E+02      1.9516003123E-04      temp                 
stemp_0.04_62         2.6480828472E+02      1.9516003123E-04      temp                 
stemp_0.04_63         2.6410159722E+02      1.9516003123E-04      temp                 
stemp_0.04_64         2.6430320833E+02      1.9516003123E-04      temp                 
stemp_0.04_65         2.6559062500E+02      1.9516003123E-04      temp                 
stemp_0.04_66         2.6592200694E+02      1.9516003123E-04      temp                 
stemp_0.04_67         2.6559009722E+02      1.9516003123E-04      temp                 
stemp_0.04_68         2.6402862500E+02      1.9516003123E-04      temp                 
stemp_0.04_69         2.6303608333E+02      1.9516003123E-04      temp                 
stemp_0.04_70         2.6456150000E+02      1.9516003123E-04      temp                 
stemp_0.04_71         2.6534905556E+02      1.9516003123E-04      temp                 
stemp_0.04_72         2.6491639583E+02      1.9516003123E-04      temp                 
stemp_0.04_73         2.6604006250E+02      1.9516003123E-04      temp                 
stemp_0.04_74         2.6663981250E+02      1.9516003123E-04      temp                 
stemp_0.04_75         2.6726213194E+02      1.9516003123E-04      temp                 
stemp_0.04_76         2.6661323611E+02      1.9516003123E-04      temp                 
stemp_0.04_77         2.6562429861E+02      1.9516003123E-04      temp                 
stemp_0.04_78         2.6621347222E+02      1.9516003123E-04      temp                 
stemp_0.04_79         2.6639193056E+02      1.9516003123E-04      temp                 
stemp_0.04_80         2.6662212500E+02      1.9516003123E-04      temp                 
stemp_0.04_81         2.6632588194E+02      1.9516003123E-04      temp                 
stemp_0.04_82         2.6580733333E+02      1.9516003123E-04      temp                 
stemp_0.04_83         2.6510745139E+02      1.9516003123E-04      temp                 
stemp_0.04_84         2.6463479167E+02      1.9516003123E-04      temp                 
stemp_0.04_85         2.6449916667E+02      1.9516003123E-04      temp                 
stemp_0.04_86         2.6483432639E+02      1.9516003123E-04      temp                 
stemp_0.04_87         2.6557345139E+02      1.9516003123E-04      temp                 
stemp_0.04_88         2.6575245833E+02      1.9516003123E-04      temp                 
stemp_0.04_89         2.6587397222E+02      1.9516003123E-04      temp                 
stemp_0.04_90         2.6602672222E+02      1.9516003123E-04      temp                 
stemp_0.04_91         2.6610177778E+02      1.9516003123E-04      temp                 
stemp_0.04_92         2.6738769444E+02      1.9516003123E-04      temp                 
stemp_0.04_93         2.6905209028E+02      1.9516003123E-04      temp                 
stemp_0.04_94         2.7010079167E+02      1.9516003123E-04      temp                 
stemp_0.04_95         2.6998147222E+02      1.9516003123E-04      temp                 
stemp_0.04_96         2.6984988194E+02      1.9516003123E-04      temp                 
stemp_0.04_97         2.6935277778E+02      1.9516003123E-04      temp                 
stemp_0.04_98         2.6849954861E+02      1.9516003123E-04      temp                 
stemp_0.04_99         2.6903419444E+02      1.9516003123E-04      temp                 
stemp_0.04_100        2.7013979167E+02      1.9516003123E-04      temp                 
stemp_0.04_101        2.6946141667E+02      1.9516003123E-04      temp                 
stemp_0.04_102        2.6900459722E+02      1.9516003123E-04      temp                 
stemp_0.04_103        2.7001259722E+02      1.9516003123E-04      temp                 
stemp_0.04_104        2.7101693750E+02      1.9516003123E-04      temp                 
stemp_0.04_105        2.7080275694E+02      1.9516003123E-04      temp                 
stemp_0.04_106        2.7010591667E+02      1.9516003123E-04      temp                 
stemp_0.04_107        2.6873847917E+02      1.9516003123E-04      temp                 
stemp_0.04_108        2.6814354167E+02      1.9516003123E-04      temp                 
stemp_0.04_109        2.6838323611E+02      1.9516003123E-04      temp                 
stemp_0.04_110        2.6881635417E+02      1.9516003123E-04      temp                 
stemp_0.04_111        2.6887187500E+02      1.9516003123E-04      temp                 
stemp_0.04_112        2.6914620833E+02      1.9516003123E-04      temp                 
stemp_0.04_113        2.6884234722E+02      1.9516003123E-04      temp                 
stemp_0.04_114        2.6881235417E+02      1.9516003123E-04      temp                 
stemp_0.04_115        2.6909738889E+02      1.9516003123E-04      temp                 
stemp_0.04_116        2.6892888889E+02      1.9516003123E-04      temp                 
stemp_0.04_117        2.6881297917E+02      1.9516003123E-04      temp                 
stemp_0.04_118        2.6915632639E+02      1.9516003123E-04      temp                 
stemp_0.04_119        2.6961015972E+02      1.9516003123E-04      temp                 
stemp_0.04_120        2.7041835417E+02      1.9516003123E-04      temp                 
stemp_0.04_121        2.7102520139E+02      1.9516003123E-04      temp                 
stemp_0.04_122        2.7022441667E+02      1.9516003123E-04      temp                 
stemp_0.04_123        2.7064329167E+02      1.9516003123E-04      temp                 
stemp_0.04_124        2.7129669444E+02      1.9516003123E-04      temp                 
stemp_0.04_125        2.7169581250E+02      1.9516003123E-04      temp                 
stemp_0.04_126        2.7206667361E+02      1.9516003123E-04      temp                 
stemp_0.04_127        2.7215693750E+02      1.9516003123E-04      temp                 
stemp_0.04_128        2.7229957639E+02      1.9516003123E-04      temp                 
stemp_0.04_129        2.7254809028E+02      1.9516003123E-04      temp                 
stemp_0.04_130        2.7288475694E+02      1.9516003123E-04      temp                 
stemp_0.04_131        2.7325166667E+02      1.9516003123E-04      temp                 
stemp_0.04_132        2.7320872917E+02      1.9516003123E-04      temp                 
stemp_0.04_133        2.7271354167E+02      1.9516003123E-04      temp                 
stemp_0.04_134        2.7268646528E+02      1.9516003123E-04      temp                 
stemp_0.04_135        2.7267824306E+02      1.9516003123E-04      temp                 
stemp_0.04_136        2.7270118056E+02      1.9516003123E-04      temp                 
stemp_0.04_137        2.7310888194E+02      1.9516003123E-04      temp                 
stemp_0.04_138        2.7296404167E+02      1.9516003123E-04      temp                 
stemp_0.04_139        2.7343661111E+02      1.9516003123E-04      temp                 
stemp_0.04_140        2.7271535417E+02      1.9516003123E-04      temp                 
stemp_0.04_141        2.7270950694E+02      1.9516003123E-04      temp                 
stemp_0.04_142        2.7270604861E+02      1.9516003123E-04      temp                 
stemp_0.04_143        2.7269218750E+02      1.9516003123E-04      temp                 
stemp_0.04_144        2.7269047222E+02      1.9516003123E-04      temp                 
stemp_0.04_145        2.7270731250E+02      1.9516003123E-04      temp                 
stemp_0.04_146        2.7269245139E+02      1.9516003123E-04      temp                 
stemp_0.04_147        2.7269902778E+02      1.9516003123E-04      temp                 
stemp_0.04_148        2.7271789583E+02      1.9516003123E-04      temp                 
stemp_0.04_149        2.7273167361E+02      1.9516003123E-04      temp                 
stemp_0.04_150        2.7273054167E+02      1.9516003123E-04      temp                 
stemp_0.04_151        2.7273027083E+02      1.9516003123E-04      temp                 
stemp_0.04_152        2.7272789583E+02      1.9516003123E-04      temp                 
stemp_0.04_153        2.7272690972E+02      1.9516003123E-04      temp                 
stemp_0.04_154        2.7272686806E+02      1.9516003123E-04      temp                 
stemp_0.04_155        2.7272540972E+02      1.9516003123E-04      temp                 
stemp_0.04_156        2.7297913889E+02      1.9516003123E-04      temp                 
stemp_0.04_157        2.7296304861E+02      1.9516003123E-04      temp                 
stemp_0.04_158        2.7409199306E+02      1.9516003123E-04      temp                 
stemp_0.04_159        2.7429996528E+02      1.9516003123E-04      temp                 
stemp_0.04_160        2.7525225000E+02      1.9516003123E-04      temp                 
stemp_0.04_161        2.7459416667E+02      1.9516003123E-04      temp                 
stemp_0.04_162        2.7343425000E+02      1.9516003123E-04      temp                 
stemp_0.04_163        2.7563558333E+02      1.9516003123E-04      temp                 
stemp_0.04_164        2.7617641667E+02      1.9516003123E-04      temp                 
stemp_0.04_165        2.7553045833E+02      1.9516003123E-04      temp                 
stemp_0.04_166        2.7516048611E+02      1.9516003123E-04      temp                 
stemp_0.04_167        2.7686372222E+02      1.9516003123E-04      temp                 
stemp_0.04_168        2.7739254167E+02      1.9516003123E-04      temp                 
stemp_0.04_169        2.7728084722E+02      1.9516003123E-04      temp                 
stemp_0.04_170        2.7793914583E+02      1.9516003123E-04      temp                 
stemp_0.04_171        2.7849531944E+02      1.9516003123E-04      temp                 
stemp_0.04_172        2.7896071528E+02      1.9516003123E-04      temp                 
stemp_0.04_173        2.7758323611E+02      1.9516003123E-04      temp                 
stemp_0.04_174        2.7711052778E+02      1.9516003123E-04      temp                 
stemp_0.04_175        2.7732464583E+02      1.9516003123E-04      temp                 
stemp_0.04_176        2.7660091667E+02      1.9516003123E-04      temp                 
stemp_0.04_177        2.7798810417E+02      1.9516003123E-04      temp                 
stemp_0.04_178        2.7819713194E+02      1.9516003123E-04      temp                 
stemp_0.04_179        2.7823772222E+02      1.9516003123E-04      temp                 
stemp_0.04_180        2.7823248611E+02      1.9516003123E-04      temp                 
stemp_0.04_181        2.7775499306E+02      1.9516003123E-04      temp                 
stemp_0.04_182        2.7787185417E+02      1.9516003123E-04      temp                 
stemp_0.04_183        2.7699884722E+02      1.9516003123E-04      temp                 
stemp_0.04_184        2.7892233333E+02      1.9516003123E-04      temp                 
stemp_0.04_185        2.8090221528E+02      1.9516003123E-04      temp                 
stemp_0.04_186        2.8219587500E+02      1.9516003123E-04      temp                 
stemp_0.04_187        2.8229210417E+02      1.9516003123E-04      temp                 
stemp_0.04_188        2.8291790278E+02      1.9516003123E-04      temp                 
stemp_0.04_189        2.8181235417E+02      1.9516003123E-04      temp                 
stemp_0.04_190        2.8133529861E+02      1.9516003123E-04      temp                 
stemp_0.04_191        2.8052906944E+02      1.9516003123E-04      temp                 
stemp_0.04_192        2.7865337500E+02      1.9516003123E-04      temp                 
stemp_0.04_193        2.7968818056E+02      1.9516003123E-04      temp                 
stemp_0.04_194        2.7985516667E+02      1.9516003123E-04      temp                 
stemp_0.04_195        2.7931924306E+02      1.9516003123E-04      temp                 
stemp_0.04_196        2.7975116667E+02      1.9516003123E-04      temp                 
stemp_0.04_197        2.8062190278E+02      1.9516003123E-04      temp                 
stemp_0.04_198        2.7955774306E+02      1.9516003123E-04      temp                 
stemp_0.04_199        2.7986007639E+02      1.9516003123E-04      temp                 
stemp_0.04_200        2.8168475000E+02      1.9516003123E-04      temp                 
stemp_0.04_201        2.8222420139E+02      1.9516003123E-04      temp                 
stemp_0.04_202        2.8022255556E+02      1.9516003123E-04      temp                 
stemp_0.04_203        2.8205793056E+02      1.9516003123E-04      temp                 
stemp_0.04_204        2.7972372917E+02      1.9516003123E-04      temp                 
stemp_0.04_205        2.8054865972E+02      1.9516003123E-04      temp                 
stemp_0.04_206        2.8126528472E+02      1.9516003123E-04      temp                 
stemp_0.04_207        2.8089597917E+02      1.9516003123E-04      temp                 
stemp_0.04_208        2.8074780556E+02      1.9516003123E-04      temp                 
stemp_0.04_209        2.8033023611E+02      1.9516003123E-04      temp                 
stemp_0.04_210        2.8143213889E+02      1.9516003123E-04      temp                 
stemp_0.04_211        2.8299920833E+02      1.9516003123E-04      temp                 
stemp_0.04_212        2.8345428472E+02      1.9516003123E-04      temp                 
stemp_0.04_213        2.8357990278E+02      1.9516003123E-04      temp                 
stemp_0.04_214        2.8234327083E+02      1.9516003123E-04      temp                 
stemp_0.04_215        2.8259283333E+02      1.9516003123E-04      temp                 
stemp_0.04_216        2.8255699306E+02      1.9516003123E-04      temp                 
stemp_0.04_217        2.8345227778E+02      1.9516003123E-04      temp                 
stemp_0.04_218        2.8410401389E+02      1.9516003123E-04      temp                 
stemp_0.04_219        2.8510025000E+02      1.9516003123E-04      temp                 
stemp_0.04_220        2.8579879167E+02      1.9516003123E-04      temp                 
stemp_0.04_221        2.8576623611E+02      1.9516003123E-04      temp                 
stemp_0.04_222        2.8264055556E+02      1.9516003123E-04      temp                 
stemp_0.04_223        2.8210861806E+02      1.9516003123E-04      temp                 
stemp_0.04_224        2.8207493750E+02      1.9516003123E-04      temp                 
stemp_0.04_225        2.8243881250E+02      1.9516003123E-04      temp                 
stemp_0.04_226        2.8189397917E+02      1.9516003123E-04      temp                 
stemp_0.04_227        2.8298870833E+02      1.9516003123E-04      temp                 
stemp_0.04_228        2.8560694444E+02      1.9516003123E-04      temp                 
stemp_0.04_229        2.8578708333E+02      1.9516003123E-04      temp                 
stemp_0.04_230        2.8315277778E+02      1.9516003123E-04      temp                 
stemp_0.04_231        2.8212631250E+02      1.9516003123E-04      temp                 
stemp_0.04_232        2.8419363194E+02      1.9516003123E-04      temp                 
stemp_0.04_233        2.8378837500E+02      1.9516003123E-04      temp                 
stemp_0.04_234        2.8429020833E+02      1.9516003123E-04      temp                 
stemp_0.04_235        2.8430409722E+02      1.9516003123E-04      temp                 
stemp_0.04_236        2.8197484028E+02      1.9516003123E-04      temp                 
stemp_0.04_237        2.8119647222E+02      1.9516003123E-04      temp                 
stemp_0.04_238        2.8258259028E+02      1.9516003123E-04      temp                 
stemp_0.04_239        2.8324365278E+02      1.9516003123E-04      temp                 
stemp_0.04_240        2.8328962500E+02      1.9516003123E-04      temp                 
stemp_0.04_241        2.7942552083E+02      1.9516003123E-04      temp                 
stemp_0.04_242        2.7853279167E+02      1.9516003123E-04      temp                 
stemp_0.04_243        2.8052618056E+02      1.9516003123E-04      temp                 
stemp_0.04_244        2.7828584028E+02      1.9516003123E-04      temp                 
stemp_0.04_245        2.7740163889E+02      1.9516003123E-04      temp                 
stemp_0.04_246        2.7812122917E+02      1.9516003123E-04      temp                 
stemp_0.04_247        2.7855563889E+02      1.9516003123E-04      temp                 
stemp_0.04_248        2.7498967361E+02      1.9516003123E-04      temp                 
stemp_0.04_249        2.7460609028E+02      1.9516003123E-04      temp                 
stemp_0.04_250        2.7598144444E+02      1.9516003123E-04      temp                 
stemp_0.04_251        2.7494641667E+02      1.9516003123E-04      temp                 
stemp_0.04_252        2.7368626389E+02      1.9516003123E-04      temp                 
stemp_0.04_253        2.7352080556E+02      1.9516003123E-04      temp                 
stemp_0.04_254        2.7356491667E+02      1.9516003123E-04      temp                 
stemp_0.04_255        2.7421430556E+02      1.9516003123E-04      temp                 
stemp_0.04_256        2.7622233333E+02      1.9516003123E-04      temp                 
stemp_0.04_257        2.7768756250E+02      1.9516003123E-04      temp                 
stemp_0.04_258        2.7849368750E+02      1.9516003123E-04      temp                 
stemp_0.04_259        2.7565063889E+02      1.9516003123E-04      temp                 
stemp_0.04_260        2.7516724306E+02      1.9516003123E-04      temp                 
stemp_0.04_261        2.7609763889E+02      1.9516003123E-04      temp                 
stemp_0.04_262        2.7419938194E+02      1.9516003123E-04      temp                 
stemp_0.04_263        2.7400384028E+02      1.9516003123E-04      temp                 
stemp_0.04_264        2.7500475694E+02      1.9516003123E-04      temp                 
stemp_0.04_265        2.7627547222E+02      1.9516003123E-04      temp                 
stemp_0.04_266        2.7546864583E+02      1.9516003123E-04      temp                 
stemp_0.04_267        2.7457359722E+02      1.9516003123E-04      temp                 
stemp_0.04_268        2.7451277778E+02      1.9516003123E-04      temp                 
stemp_0.04_269        2.7534350000E+02      1.9516003123E-04      temp                 
stemp_0.04_270        2.7631006250E+02      1.9516003123E-04      temp                 
stemp_0.04_271        2.7543425000E+02      1.9516003123E-04      temp                 
stemp_0.04_272        2.7546827778E+02      1.9516003123E-04      temp                 
stemp_0.04_273        2.7524438889E+02      1.9516003123E-04      temp                 
stemp_0.04_274        2.7504742361E+02      1.9516003123E-04      temp                 
stemp_0.04_275        2.7478000694E+02      1.9516003123E-04      temp                 
stemp_0.04_276        2.7451844444E+02      1.9516003123E-04      temp                 