pcf
* control data
             restart          estimation
        12      5124        12         0         2
         1         1              single               point
   2.000000E+01  -3.000000E+00   3.000000E-01   1.000000E-02        -7
   1.000000E+01   1.000000E+01   1.000000E-03
   1.000000E-01
   50  1.000000E-02         3         3   1.000000E-02         3
         0         0         0
* singular value decomposition
         1
  10000000    1.000000E-06
1
* parameter groups
alpha_p_gp             relative              1.0000000000E-01      0.0 switch                1.0000000000E+00      parabolic             1.0000000000E-05      5.0000000000E-01      smaller
alpha_m_gp             relative              1.0000000000E-01      0.0 switch                1.0000000000E+00      parabolic             1.0000000000E-05      5.0000000000E-01      smaller
n_p_gp                 relative              1.0000000000E-01      0.0 switch                1.0000000000E+00      parabolic             1.0000000000E-05      5.0000000000E-01      smaller
wr_p_gp                relative              1.0000000000E-01      0.0 switch                1.0000000000E+00      parabolic             1.0000000000E-05      5.0000000000E-01      smaller
por_p_gp               relative              1.0000000000E-01      0.0 switch                1.0000000000E+00      parabolic             1.0000000000E-05      5.0000000000E-01      smaller
por_m_gp               relative              1.0000000000E-01      0.0 switch                1.0000000000E+00      parabolic             1.0000000000E-05      5.0000000000E-01      smaller
perm_p_gp              relative              1.0000000000E-01      0.0 switch                1.0000000000E+00      parabolic             1.0000000000E-05      5.0000000000E-01      smaller
perm_m_gp              relative              1.0000000000E-01      0.0 switch                1.0000000000E+00      parabolic             1.0000000000E-05      5.0000000000E-01      smaller
pen_s_gp               relative              1.0000000000E-01      0.0 switch                1.0000000000E+00      parabolic             1.0000000000E-05      5.0000000000E-01      smaller
z_bg_gp                relative              1.0000000000E-01      0.0 switch                1.0000000000E+00      parabolic             1.0000000000E-05      5.0000000000E-01      smaller
z_s_gp                 relative              1.0000000000E-01      0.0 switch                1.0000000000E+00      parabolic             1.0000000000E-05      5.0000000000E-01      smaller
b_bc_gp                relative              1.0000000000E-02      0.0 switch                1.0000000000E+00      parabolic             1.0000000000E-05      5.0000000000E-01      smaller
* parameter data
alpha_p               none                  factor                1.0000000000E-02      2.5000000000E-03      1.2500000000E-02      alpha_p_gp            1.0000000000E+00      0.0000000000E+00
alpha_m               none                  factor                1.8249143534E-03      4.5622858836E-04      3.1936001185E-03      alpha_m_gp            1.0000000000E+00      0.0000000000E+00
n_p                   none                  factor                1.5000000000E+00      1.0250000000E+00      2.0500000000E+00      n_p_gp                1.0000000000E+00      0.0000000000E+00
wr_p                  none                  factor                1.0000000000E-01      2.4000000000E-02      2.0000000000E-01      wr_p_gp               1.0000000000E+00      0.0000000000E+00
por_p                 none                  factor                6.3739000000E-01      1.5900000000E-01      8.5000000000E-01      por_p_gp              1.0000000000E+00      0.0000000000E+00
por_m                 none                  factor                4.8103076529E-01      1.2025769132E-01      8.4180383926E-01      por_m_gp              1.0000000000E+00      0.0000000000E+00
perm_p                none                  factor                5.3466221272E-11      1.3366555318E-11      9.3565887226E-11      perm_p_gp             1.0000000000E+00      0.0000000000E+00
perm_m                none                  factor                1.0000000000E-13      2.5000000000E-14      1.7500000000E-13      perm_m_gp             1.0000000000E+00      0.0000000000E+00
pen_s                 none                  factor                2.0000000000E-02      5.0000000000E-03      3.5000000000E-02      pen_s_gp              1.0000000000E+00      0.0000000000E+00
z_bg                  none                  factor                4.0000000000E-02      1.0000000000E-02      7.0000000000E-02      z_bg_gp               1.0000000000E+00      0.0000000000E+00
z_s                   none                  factor                5.0000000000E-03      1.2500000000E-03      8.7500000000E-03      z_s_gp                1.0000000000E+00      0.0000000000E+00
b_bc                  none                  factor                2.6845000000E+02      2.6315000000E+02      2.7415000000E+02      b_bc_gp               1.0000000000E+00      0.0000000000E+00
* observation groups
temp
mois
* observation data
 stemp_0.04_0          260.6422       4.430657E-04  temp
 stemp_0.04_1          261.2884       4.430657E-04  temp
 stemp_0.04_2          261.3255       4.430657E-04  temp
 stemp_0.04_3          261.1522       4.430657E-04  temp
 stemp_0.04_4          260.7784       4.430657E-04  temp
 stemp_0.04_5          260.3231       4.430657E-04  temp
 stemp_0.04_6          260.3782       4.430657E-04  temp
 stemp_0.04_7          259.7585       4.430657E-04  temp
 stemp_0.04_8          259.4415       4.430657E-04  temp
 stemp_0.04_9          259.1726       4.430657E-04  temp
 stemp_0.04_10         259.3997       4.430657E-04  temp
 stemp_0.04_11         258.8128       4.430657E-04  temp
 stemp_0.04_12         258.3265       4.430657E-04  temp
 stemp_0.04_13         258.0017       4.430657E-04  temp
 stemp_0.04_14         258.5859       4.430657E-04  temp
 stemp_0.04_15         258.8353       4.430657E-04  temp
 stemp_0.04_16         259.0194       4.430657E-04  temp
 stemp_0.04_17         259.0142       4.430657E-04  temp
 stemp_0.04_18         259.1731       4.430657E-04  temp
 stemp_0.04_19         258.7783       4.430657E-04  temp
 stemp_0.04_20         258.1565       4.430657E-04  temp
 stemp_0.04_21         257.2050       4.430657E-04  temp
 stemp_0.04_22         255.8992       4.430657E-04  temp
 stemp_0.04_23         255.3265       4.430657E-04  temp
 stemp_0.04_24         255.2708       4.430657E-04  temp
 stemp_0.04_25         255.3444       4.430657E-04  temp
 stemp_0.04_26         256.3877       4.430657E-04  temp
 stemp_0.04_27         257.0276       4.430657E-04  temp
 stemp_0.04_28         257.2752       4.430657E-04  temp
 stemp_0.04_29         257.6142       4.430657E-04  temp
 stemp_0.04_30         257.8523       4.430657E-04  temp
 stemp_0.04_31         258.3584       4.430657E-04  temp
 stemp_0.04_32         258.1115       4.430657E-04  temp
 stemp_0.04_33         258.1543       4.430657E-04  temp
 stemp_0.04_34         258.0240       4.430657E-04  temp
 stemp_0.04_35         257.3147       4.430657E-04  temp
 stemp_0.04_36         257.6429       4.430657E-04  temp
 stemp_0.04_37         258.2466       4.430657E-04  temp
 stemp_0.04_38         258.7183       4.430657E-04  temp
 stemp_0.04_39         259.7881       4.430657E-04  temp
 stemp_0.04_40         260.7248       4.430657E-04  temp
 stemp_0.04_41         261.4470       4.430657E-04  temp
 stemp_0.04_42         261.6849       4.430657E-04  temp
 stemp_0.04_43         261.0959       4.430657E-04  temp
 stemp_0.04_44         260.2286       4.430657E-04  temp
 stemp_0.04_45         259.7093       4.430657E-04  temp
 stemp_0.04_46         259.4660       4.430657E-04  temp
 stemp_0.04_47         259.7737       4.430657E-04  temp
 stemp_0.04_48         259.1318       4.430657E-04  temp
 stemp_0.04_49         257.7107       4.430657E-04  temp
 stemp_0.04_50         258.4454       4.430657E-04  temp
 stemp_0.04_51         260.2622       4.430657E-04  temp
 stemp_0.04_52         260.3295       4.430657E-04  temp
 stemp_0.04_53         259.2512       4.430657E-04  temp
 stemp_0.04_54         258.8309       4.430657E-04  temp
 stemp_0.04_55         259.5171       4.430657E-04  temp
 stemp_0.04_56         260.7429       4.430657E-04  temp
 stemp_0.04_57         261.9282       4.430657E-04  temp
 stemp_0.04_58         262.9612       4.430657E-04  temp
 stemp_0.04_59         263.9252       4.430657E-04  temp
 stemp_0.04_60         263.8185       4.430657E-04  temp
 stemp_0.04_61         263.7587       4.430657E-04  temp
 stemp_0.04_62         264.8083       4.430657E-04  temp
 stemp_0.04_63         264.1016       4.430657E-04  temp
 stemp_0.04_64         264.3032       4.430657E-04  temp
 stemp_0.04_65         265.5906       4.430657E-04  temp
 stemp_0.04_66         265.9220       4.430657E-04  temp
 stemp_0.04_67         265.5901       4.430657E-04  temp
 stemp_0.04_68         264.0286       4.430657E-04  temp
 stemp_0.04_69         263.0361       4.430657E-04  temp
 stemp_0.04_70         264.5615       4.430657E-04  temp
 stemp_0.04_71         265.3491       4.430657E-04  temp
 stemp_0.04_72         264.9164       4.430657E-04  temp
 stemp_0.04_73         266.0401       4.430657E-04  temp
 stemp_0.04_74         266.6398       4.430657E-04  temp
 stemp_0.04_75         267.2621       4.430657E-04  temp
 stemp_0.04_76         266.6132       4.430657E-04  temp
 stemp_0.04_77         265.6243       4.430657E-04  temp
 stemp_0.04_78         266.2135       4.430657E-04  temp
 stemp_0.04_79         266.3919       4.430657E-04  temp
 stemp_0.04_80         266.6221       4.430657E-04  temp
 stemp_0.04_81         266.3259       4.430657E-04  temp
 stemp_0.04_82         265.8073       4.430657E-04  temp
 stemp_0.04_83         265.1075       4.430657E-04  temp
 stemp_0.04_84         264.6348       4.430657E-04  temp
 stemp_0.04_85         264.4992       4.430657E-04  temp
 stemp_0.04_86         264.8343       4.430657E-04  temp
 stemp_0.04_87         265.5735       4.430657E-04  temp
 stemp_0.04_88         265.7525       4.430657E-04  temp
 stemp_0.04_89         265.8740       4.430657E-04  temp
 stemp_0.04_90         266.0267       4.430657E-04  temp
 stemp_0.04_91         266.1018       4.430657E-04  temp
 stemp_0.04_92         267.3877       4.430657E-04  temp
 stemp_0.04_93         269.0521       4.430657E-04  temp
 stemp_0.04_94         270.1008       4.430657E-04  temp
 stemp_0.04_95         269.9815       4.430657E-04  temp
 stemp_0.04_96         269.8499       4.430657E-04  temp
 stemp_0.04_97         269.3528       4.430657E-04  temp
 stemp_0.04_98         268.4995       4.430657E-04  temp
 stemp_0.04_99         269.0342       4.430657E-04  temp
 stemp_0.04_100        270.1398       4.430657E-04  temp
 stemp_0.04_101        269.4614       4.430657E-04  temp
 stemp_0.04_102        269.0046       4.430657E-04  temp
 stemp_0.04_103        270.0126       4.430657E-04  temp
 stemp_0.04_104        271.0169       4.430657E-04  temp
 stemp_0.04_105        270.8028       4.430657E-04  temp
 stemp_0.04_106        270.1059       4.430657E-04  temp
 stemp_0.04_107        268.7385       4.430657E-04  temp
 stemp_0.04_108        268.1435       4.430657E-04  temp
 stemp_0.04_109        268.3832       4.430657E-04  temp
 stemp_0.04_110        268.8164       4.430657E-04  temp
 stemp_0.04_111        268.8719       4.430657E-04  temp
 stemp_0.04_112        269.1462       4.430657E-04  temp
 stemp_0.04_113        268.8423       4.430657E-04  temp
 stemp_0.04_114        268.8124       4.430657E-04  temp
 stemp_0.04_115        269.0974       4.430657E-04  temp
 stemp_0.04_116        268.9289       4.430657E-04  temp
 stemp_0.04_117        268.8130       4.430657E-04  temp
 stemp_0.04_118        269.1563       4.430657E-04  temp
 stemp_0.04_119        269.6102       4.430657E-04  temp
 stemp_0.04_120        270.4184       4.430657E-04  temp
 stemp_0.04_121        271.0252       4.430657E-04  temp
 stemp_0.04_122        270.2244       4.430657E-04  temp
 stemp_0.04_123        270.6433       4.430657E-04  temp
 stemp_0.04_124        271.2967       4.430657E-04  temp
 stemp_0.04_125        271.6958       4.430657E-04  temp
 stemp_0.04_126        272.0667       4.430657E-04  temp
 stemp_0.04_127        272.1569       4.430657E-04  temp
 stemp_0.04_128        272.2996       4.430657E-04  temp
 stemp_0.04_129        272.5481       4.430657E-04  temp
 stemp_0.04_130        272.8848       4.430657E-04  temp
 stemp_0.04_131        273.2517       4.430657E-04  temp
 stemp_0.04_132        273.2087       4.430657E-04  temp
 stemp_0.04_133        272.7135       4.430657E-04  temp
 stemp_0.04_134        272.6865       4.430657E-04  temp
 stemp_0.04_135        272.6782       4.430657E-04  temp
 stemp_0.04_136        272.7012       4.430657E-04  temp
 stemp_0.04_137        273.1089       4.430657E-04  temp
 stemp_0.04_138        272.9640       4.430657E-04  temp
 stemp_0.04_139        273.4366       4.430657E-04  temp
 stemp_0.04_140        272.7154       4.430657E-04  temp
 stemp_0.04_141        272.7095       4.430657E-04  temp
 stemp_0.04_142        272.7060       4.430657E-04  temp
 stemp_0.04_143        272.6922       4.430657E-04  temp
 stemp_0.04_144        272.6905       4.430657E-04  temp
 stemp_0.04_145        272.7073       4.430657E-04  temp
 stemp_0.04_146        272.6925       4.430657E-04  temp
 stemp_0.04_147        272.6990       4.430657E-04  temp
 stemp_0.04_148        272.7179       4.430657E-04  temp
 stemp_0.04_149        272.7317       4.430657E-04  temp
 stemp_0.04_150        272.7305       4.430657E-04  temp
 stemp_0.04_151        272.7303       4.430657E-04  temp
 stemp_0.04_152        272.7279       4.430657E-04  temp
 stemp_0.04_153        272.7269       4.430657E-04  temp
 stemp_0.04_154        272.7269       4.430657E-04  temp
 stemp_0.04_155        272.7254       4.430657E-04  temp
 stemp_0.04_156        272.9791       4.430657E-04  temp
 stemp_0.04_157        272.9630       4.430657E-04  temp
 stemp_0.04_158        274.0920       4.430657E-04  temp
 stemp_0.04_159        274.3000       4.430657E-04  temp
 stemp_0.04_160        275.2523       4.430657E-04  temp
 stemp_0.04_161        274.5942       4.430657E-04  temp
 stemp_0.04_162        273.4343       4.430657E-04  temp
 stemp_0.04_163        275.6356       4.430657E-04  temp
 stemp_0.04_164        276.1764       4.430657E-04  temp
 stemp_0.04_165        275.5305       4.430657E-04  temp
 stemp_0.04_166        275.1605       4.430657E-04  temp
 stemp_0.04_167        276.8637       4.430657E-04  temp
 stemp_0.04_168        277.3925       4.430657E-04  temp
 stemp_0.04_169        277.2808       4.430657E-04  temp
 stemp_0.04_170        277.9391       4.430657E-04  temp
 stemp_0.04_171        278.4953       4.430657E-04  temp
 stemp_0.04_172        278.9607       4.430657E-04  temp
 stemp_0.04_173        277.5832       4.430657E-04  temp
 stemp_0.04_174        277.1105       4.430657E-04  temp
 stemp_0.04_175        277.3246       4.430657E-04  temp
 stemp_0.04_176        276.6009       4.430657E-04  temp
 stemp_0.04_177        277.9881       4.430657E-04  temp
 stemp_0.04_178        278.1971       4.430657E-04  temp
 stemp_0.04_179        278.2377       4.430657E-04  temp
 stemp_0.04_180        278.2325       4.430657E-04  temp
 stemp_0.04_181        277.7550       4.430657E-04  temp
 stemp_0.04_182        277.8719       4.430657E-04  temp
 stemp_0.04_183        276.9988       4.430657E-04  temp
 stemp_0.04_184        278.9223       4.430657E-04  temp
 stemp_0.04_185        280.9022       4.430657E-04  temp
 stemp_0.04_186        282.1959       4.430657E-04  temp
 stemp_0.04_187        282.2921       4.430657E-04  temp
 stemp_0.04_188        282.9179       4.430657E-04  temp
 stemp_0.04_189        281.8124       4.430657E-04  temp
 stemp_0.04_190        281.3353       4.430657E-04  temp
 stemp_0.04_191        280.5291       4.430657E-04  temp
 stemp_0.04_192        278.6534       4.430657E-04  temp
 stemp_0.04_193        279.6882       4.430657E-04  temp
 stemp_0.04_194        279.8552       4.430657E-04  temp
 stemp_0.04_195        279.3192       4.430657E-04  temp
 stemp_0.04_196        279.7512       4.430657E-04  temp
 stemp_0.04_197        280.6219       4.430657E-04  temp
 stemp_0.04_198        279.5577       4.430657E-04  temp
 stemp_0.04_199        279.8601       4.430657E-04  temp
 stemp_0.04_200        281.6848       4.430657E-04  temp
 stemp_0.04_201        282.2242       4.430657E-04  temp
 stemp_0.04_202        280.2226       4.430657E-04  temp
 stemp_0.04_203        282.0579       4.430657E-04  temp
 stemp_0.04_204        279.7237       4.430657E-04  temp
 stemp_0.04_205        280.5487       4.430657E-04  temp
 stemp_0.04_206        281.2653       4.430657E-04  temp
 stemp_0.04_207        280.8960       4.430657E-04  temp
 stemp_0.04_208        280.7478       4.430657E-04  temp
 stemp_0.04_209        280.3302       4.430657E-04  temp
 stemp_0.04_210        281.4321       4.430657E-04  temp
 stemp_0.04_211        282.9992       4.430657E-04  temp
 stemp_0.04_212        283.4543       4.430657E-04  temp
 stemp_0.04_213        283.5799       4.430657E-04  temp
 stemp_0.04_214        282.3433       4.430657E-04  temp
 stemp_0.04_215        282.5928       4.430657E-04  temp
 stemp_0.04_216        282.5570       4.430657E-04  temp
 stemp_0.04_217        283.4523       4.430657E-04  temp
 stemp_0.04_218        284.1040       4.430657E-04  temp
 stemp_0.04_219        285.1003       4.430657E-04  temp
 stemp_0.04_220        285.7988       4.430657E-04  temp
 stemp_0.04_221        285.7662       4.430657E-04  temp
 stemp_0.04_222        282.6406       4.430657E-04  temp
 stemp_0.04_223        282.1086       4.430657E-04  temp
 stemp_0.04_224        282.0749       4.430657E-04  temp
 stemp_0.04_225        282.4388       4.430657E-04  temp
 stemp_0.04_226        281.8940       4.430657E-04  temp
 stemp_0.04_227        282.9887       4.430657E-04  temp
 stemp_0.04_228        285.6069       4.430657E-04  temp
 stemp_0.04_229        285.7871       4.430657E-04  temp
 stemp_0.04_230        283.1528       4.430657E-04  temp
 stemp_0.04_231        282.1263       4.430657E-04  temp
 stemp_0.04_232        284.1936       4.430657E-04  temp
 stemp_0.04_233        283.7884       4.430657E-04  temp
 stemp_0.04_234        284.2902       4.430657E-04  temp
 stemp_0.04_235        284.3041       4.430657E-04  temp
 stemp_0.04_236        281.9748       4.430657E-04  temp
 stemp_0.04_237        281.1965       4.430657E-04  temp
 stemp_0.04_238        282.5826       4.430657E-04  temp
 stemp_0.04_239        283.2437       4.430657E-04  temp
 stemp_0.04_240        283.2896       4.430657E-04  temp
 stemp_0.04_241        279.4255       4.430657E-04  temp
 stemp_0.04_242        278.5328       4.430657E-04  temp
 stemp_0.04_243        280.5262       4.430657E-04  temp
 stemp_0.04_244        278.2858       4.430657E-04  temp
 stemp_0.04_245        277.4016       4.430657E-04  temp
 stemp_0.04_246        278.1212       4.430657E-04  temp
 stemp_0.04_247        278.5556       4.430657E-04  temp
 stemp_0.04_248        274.9897       4.430657E-04  temp
 stemp_0.04_249        274.6061       4.430657E-04  temp
 stemp_0.04_250        275.9814       4.430657E-04  temp
 stemp_0.04_251        274.9464       4.430657E-04  temp
 stemp_0.04_252        273.6863       4.430657E-04  temp
 stemp_0.04_253        273.5208       4.430657E-04  temp
 stemp_0.04_254        273.5649       4.430657E-04  temp
 stemp_0.04_255        274.2143       4.430657E-04  temp
 stemp_0.04_256        276.2223       4.430657E-04  temp
 stemp_0.04_257        277.6876       4.430657E-04  temp
 stemp_0.04_258        278.4937       4.430657E-04  temp
 stemp_0.04_259        275.6506       4.430657E-04  temp
 stemp_0.04_260        275.1672       4.430657E-04  temp
 stemp_0.04_261        276.0976       4.430657E-04  temp
 stemp_0.04_262        274.1994       4.430657E-04  temp
 stemp_0.04_263        274.0038       4.430657E-04  temp
 stemp_0.04_264        275.0048       4.430657E-04  temp
 stemp_0.04_265        276.2755       4.430657E-04  temp
 stemp_0.04_266        275.4686       4.430657E-04  temp
 stemp_0.04_267        274.5736       4.430657E-04  temp
 stemp_0.04_268        274.5128       4.430657E-04  temp
 stemp_0.04_269        275.3435       4.430657E-04  temp
 stemp_0.04_270        276.3101       4.430657E-04  temp
 stemp_0.04_271        275.4343       4.430657E-04  temp
 stemp_0.04_272        275.4683       4.430657E-04  temp
 stemp_0.04_273        275.2444       4.430657E-04  temp
 stemp_0.04_274        275.0474       4.430657E-04  temp
 stemp_0.04_275        274.7800       4.430657E-04  temp
 stemp_0.04_276        274.5184       4.430657E-04  temp
 stemp_0.04_277        273.5466       4.430657E-04  temp
 stemp_0.04_278        273.0760       4.430657E-04  temp
 stemp_0.04_279        272.8821       4.430657E-04  temp
 stemp_0.04_280        272.6939       4.430657E-04  temp
 stemp_0.04_281        272.5545       4.430657E-04  temp
 stemp_0.04_282        272.6634       4.430657E-04  temp
 stemp_0.04_283        272.6075       4.430657E-04  temp
 stemp_0.04_284        272.6826       4.430657E-04  temp
 stemp_0.04_285        272.6869       4.430657E-04  temp
 stemp_0.04_286        272.6444       4.430657E-04  temp
 stemp_0.04_287        272.6246       4.430657E-04  temp
 stemp_0.04_288        272.6759       4.430657E-04  temp
 stemp_0.04_289        272.6709       4.430657E-04  temp
 stemp_0.04_290        272.6454       4.430657E-04  temp
 stemp_0.04_291        272.5805       4.430657E-04  temp
 stemp_0.04_292        272.3754       4.430657E-04  temp
 stemp_0.04_293        272.3361       4.430657E-04  temp
 stemp_0.04_294        272.5313       4.430657E-04  temp
 stemp_0.04_295        272.4842       4.430657E-04  temp
 stemp_0.04_296        272.4222       4.430657E-04  temp
 stemp_0.04_297        272.4232       4.430657E-04  temp
 stemp_0.04_298        272.2808       4.430657E-04  temp
 stemp_0.04_299        272.0948       4.430657E-04  temp
 stemp_0.04_300        272.0762       4.430657E-04  temp
 stemp_0.04_301        272.1580       4.430657E-04  temp
 stemp_0.04_302        271.5844       4.430657E-04  temp
 stemp_0.04_303        270.7235       4.430657E-04  temp
 stemp_0.04_304        270.2019       4.430657E-04  temp
 stemp_0.04_305        269.8617       4.430657E-04  temp
 stemp_0.04_306        269.5375       4.430657E-04  temp
 stemp_0.04_307        269.5388       4.430657E-04  temp
 stemp_0.04_308        269.1378       4.430657E-04  temp
 stemp_0.04_309        268.8667       4.430657E-04  temp
 stemp_0.04_310        269.7181       4.430657E-04  temp
 stemp_0.04_311        269.7877       4.430657E-04  temp
 stemp_0.04_312        269.2810       4.430657E-04  temp
 stemp_0.04_313        269.1324       4.430657E-04  temp
 stemp_0.04_314        267.5129       4.430657E-04  temp
 stemp_0.04_315        266.8702       4.430657E-04  temp
 stemp_0.04_316        266.5883       4.430657E-04  temp
 stemp_0.04_317        266.3710       4.430657E-04  temp
 stemp_0.04_318        266.5288       4.430657E-04  temp
 stemp_0.04_319        266.6744       4.430657E-04  temp
 stemp_0.04_320        266.5109       4.430657E-04  temp
 stemp_0.04_321        266.5552       4.430657E-04  temp
 stemp_0.04_322        266.5798       4.430657E-04  temp
 stemp_0.04_323        266.0435       4.430657E-04  temp
 stemp_0.04_324        265.9557       4.430657E-04  temp
 stemp_0.04_325        266.6144       4.430657E-04  temp
 stemp_0.04_326        266.2462       4.430657E-04  temp
 stemp_0.04_327        267.1019       4.430657E-04  temp
 stemp_0.04_328        267.1112       4.430657E-04  temp
 stemp_0.04_329        266.6045       4.430657E-04  temp
 stemp_0.04_330        264.9005       4.430657E-04  temp
 stemp_0.04_331        263.2360       4.430657E-04  temp
 stemp_0.04_332        263.5501       4.430657E-04  temp
 stemp_0.04_333        262.7032       4.430657E-04  temp
 stemp_0.04_334        261.8657       4.430657E-04  temp
 stemp_0.04_335        261.7105       4.430657E-04  temp
 stemp_0.04_336        262.7760       4.430657E-04  temp
 stemp_0.04_337        262.8947       4.430657E-04  temp
 stemp_0.04_338        263.7196       4.430657E-04  temp
 stemp_0.04_339        263.6229       4.430657E-04  temp
 stemp_0.04_340        264.4829       4.430657E-04  temp
 stemp_0.04_341        264.4072       4.430657E-04  temp
 stemp_0.04_342        265.5988       4.430657E-04  temp
 stemp_0.04_343        265.9974       4.430657E-04  temp
 stemp_0.04_344        265.3558       4.430657E-04  temp
 stemp_0.04_345        265.2583       4.430657E-04  temp
 stemp_0.04_346        264.9800       4.430657E-04  temp
 stemp_0.04_347        264.6995       4.430657E-04  temp
 stemp_0.04_348        263.2973       4.430657E-04  temp
 stemp_0.04_349        263.0577       4.430657E-04  temp
 stemp_0.04_350        262.4848       4.430657E-04  temp
 stemp_0.04_351        262.7784       4.430657E-04  temp
 stemp_0.04_352        262.3520       4.430657E-04  temp
 stemp_0.04_353        263.1828       4.430657E-04  temp
 stemp_0.04_354        262.8236       4.430657E-04  temp
 stemp_0.04_355        262.1674       4.430657E-04  temp
 stemp_0.04_356        261.8073       4.430657E-04  temp
 stemp_0.04_357        262.0643       4.430657E-04  temp
 stemp_0.04_358        262.7485       4.430657E-04  temp
 stemp_0.04_359        261.4698       4.430657E-04  temp
 stemp_0.04_360        259.9898       4.430657E-04  temp
 stemp_0.04_361        258.8441       4.430657E-04  temp
 stemp_0.04_362        258.9565       4.430657E-04  temp
 stemp_0.04_363        259.1844       4.430657E-04  temp
 stemp_0.04_364        259.9625       4.430657E-04  temp
 stemp_0.04_365        260.9203       4.430657E-04  temp
 stemp_0.1_0           261.3012       4.430657E-04  temp
 stemp_0.1_1           261.8074       4.430657E-04  temp
 stemp_0.1_2           261.9493       4.430657E-04  temp
 stemp_0.1_3           261.7845       4.430657E-04  temp
 stemp_0.1_4           261.4588       4.430657E-04  temp
 stemp_0.1_5           261.0790       4.430657E-04  temp
 stemp_0.1_6           261.0947       4.430657E-04  temp
 stemp_0.1_7           260.5919       4.430657E-04  temp
 stemp_0.1_8           260.3264       4.430657E-04  temp
 stemp_0.1_9           260.1892       4.430657E-04  temp
 stemp_0.1_10          260.0966       4.430657E-04  temp
 stemp_0.1_11          259.6426       4.430657E-04  temp
 stemp_0.1_12          259.1365       4.430657E-04  temp
 stemp_0.1_13          258.7924       4.430657E-04  temp
 stemp_0.1_14          259.1474       4.430657E-04  temp
 stemp_0.1_15          259.4033       4.430657E-04  temp
 stemp_0.1_16          259.5661       4.430657E-04  temp
 stemp_0.1_17          259.6088       4.430657E-04  temp
 stemp_0.1_18          259.7633       4.430657E-04  temp
 stemp_0.1_19          259.4499       4.430657E-04  temp
 stemp_0.1_20          258.8126       4.430657E-04  temp
 stemp_0.1_21          258.0597       4.430657E-04  temp
 stemp_0.1_22          256.8672       4.430657E-04  temp
 stemp_0.1_23          256.2638       4.430657E-04  temp
 stemp_0.1_24          256.0760       4.430657E-04  temp
 stemp_0.1_25          256.0749       4.430657E-04  temp
 stemp_0.1_26          256.8856       4.430657E-04  temp
 stemp_0.1_27          257.5207       4.430657E-04  temp
 stemp_0.1_28          257.8006       4.430657E-04  temp
 stemp_0.1_29          258.1072       4.430657E-04  temp
 stemp_0.1_30          258.3543       4.430657E-04  temp
 stemp_0.1_31          258.7938       4.430657E-04  temp
 stemp_0.1_32          258.6675       4.430657E-04  temp
 stemp_0.1_33          258.7153       4.430657E-04  temp
 stemp_0.1_34          258.6240       4.430657E-04  temp
 stemp_0.1_35          257.9992       4.430657E-04  temp
 stemp_0.1_36          258.1908       4.430657E-04  temp
 stemp_0.1_37          258.6428       4.430657E-04  temp
 stemp_0.1_38          259.0566       4.430657E-04  temp
 stemp_0.1_39          259.9892       4.430657E-04  temp
 stemp_0.1_40          260.9104       4.430657E-04  temp
 stemp_0.1_41          261.6392       4.430657E-04  temp
 stemp_0.1_42          262.0987       4.430657E-04  temp
 stemp_0.1_43          261.5515       4.430657E-04  temp
 stemp_0.1_44          260.7849       4.430657E-04  temp
 stemp_0.1_45          260.2197       4.430657E-04  temp
 stemp_0.1_46          259.9426       4.430657E-04  temp
 stemp_0.1_47          260.1527       4.430657E-04  temp
 stemp_0.1_48          259.6582       4.430657E-04  temp
 stemp_0.1_49          258.5703       4.430657E-04  temp
 stemp_0.1_50          258.8752       4.430657E-04  temp
 stemp_0.1_51          260.4294       4.430657E-04  temp
 stemp_0.1_52          260.7175       4.430657E-04  temp
 stemp_0.1_53          259.9317       4.430657E-04  temp
 stemp_0.1_54          259.4112       4.430657E-04  temp
 stemp_0.1_55          259.9355       4.430657E-04  temp
 stemp_0.1_56          260.9362       4.430657E-04  temp
 stemp_0.1_57          262.0322       4.430657E-04  temp
 stemp_0.1_58          262.9375       4.430657E-04  temp
 stemp_0.1_59          263.8537       4.430657E-04  temp
 stemp_0.1_60          264.1018       4.430657E-04  temp
 stemp_0.1_61          263.8670       4.430657E-04  temp
 stemp_0.1_62          264.7976       4.430657E-04  temp
 stemp_0.1_63          264.5540       4.430657E-04  temp
 stemp_0.1_64          264.4133       4.430657E-04  temp
 stemp_0.1_65          265.4782       4.430657E-04  temp
 stemp_0.1_66          265.9881       4.430657E-04  temp
 stemp_0.1_67          265.8672       4.430657E-04  temp
 stemp_0.1_68          264.8289       4.430657E-04  temp
 stemp_0.1_69          263.6210       4.430657E-04  temp