pcf
* control data
             restart          estimation
        20     15344        20         0         2
         1         1              single               point
   2.000000E+01  -3.000000E+00   3.000000E-01   1.000000E-02        -7
   1.000000E+01   1.000000E+01   1.000000E-03
   1.000000E-01
   50  1.000000E-02         3         3   1.000000E-02         3
         0         0         0
* singular value decomposition
         1
  10000000    1.000000E-06
1
* parameter groups
alpha_p_gp             relative              1.0000000000E-01      0.0 switch                1.0000000000E+00      parabolic             1.0000000000E-05      5.0000000000E-01      smaller
alpha_m_gp             relative              1.0000000000E-01      0.0 switch                1.0000000000E+00      parabolic             1.0000000000E-05      5.0000000000E-01      smaller
n_p_gp                 relative              1.0000000000E-01      0.0 switch                1.0000000000E+00      parabolic             1.0000000000E-05      5.0000000000E-01      smaller
n_m_gp                 relative              1.0000000000E-01      0.0 switch                1.0000000000E+00      parabolic             1.0000000000E-05      5.0000000000E-01      smaller
wr_p_gp                relative              1.0000000000E-01      0.0 switch                1.0000000000E+00      parabolic             1.0000000000E-05      5.0000000000E-01      smaller
wr_m_gp                relative              1.0000000000E-01      0.0 switch                1.0000000000E+00      parabolic             1.0000000000E-05      5.0000000000E-01      smaller
tcs_p_gp               relative              1.0000000000E-01      0.0 switch                1.0000000000E+00      parabolic             1.0000000000E-05      5.0000000000E-01      smaller
tcs_m_gp               relative              1.0000000000E-01      0.0 switch                1.0000000000E+00      parabolic             1.0000000000E-05      5.0000000000E-01      smaller
tcd_p_gp               relative              1.0000000000E-01      0.0 switch                1.0000000000E+00      parabolic             1.0000000000E-05      5.0000000000E-01      smaller
tcd_m_gp               relative              1.0000000000E-01      0.0 switch                1.0000000000E+00      parabolic             1.0000000000E-05      5.0000000000E-01      smaller
af_p_gp                relative              1.0000000000E-01      0.0 switch                1.0000000000E+00      parabolic             1.0000000000E-05      5.0000000000E-01      smaller
af_m_gp                relative              1.0000000000E-01      0.0 switch                1.0000000000E+00      parabolic             1.0000000000E-05      5.0000000000E-01      smaller
auf_p_gp               relative              1.0000000000E-01      0.0 switch                1.0000000000E+00      parabolic             1.0000000000E-05      5.0000000000E-01      smaller
auf_m_gp               relative              1.0000000000E-01      0.0 switch                1.0000000000E+00      parabolic             1.0000000000E-05      5.0000000000E-01      smaller
por_p_gp               relative              1.0000000000E-01      0.0 switch                1.0000000000E+00      parabolic             1.0000000000E-05      5.0000000000E-01      smaller
por_m_gp               relative              1.0000000000E-01      0.0 switch                1.0000000000E+00      parabolic             1.0000000000E-05      5.0000000000E-01      smaller
perm_p_gp              relative              1.0000000000E-01      0.0 switch                1.0000000000E+00      parabolic             1.0000000000E-05      5.0000000000E-01      smaller
perm_m_gp              relative              1.0000000000E-01      0.0 switch                1.0000000000E+00      parabolic             1.0000000000E-05      5.0000000000E-01      smaller
den_p_gp               relative              1.0000000000E-01      0.0 switch                1.0000000000E+00      parabolic             1.0000000000E-05      5.0000000000E-01      smaller
den_m_gp               relative              1.0000000000E-01      0.0 switch                1.0000000000E+00      parabolic             1.0000000000E-05      5.0000000000E-01      smaller
* parameter data
alpha_p               none                  factor                1.0000000000E-02      2.5000000000E-03      1.7500000000E-02      alpha_p_gp            1.0000000000E+00      0.0000000000E+00
alpha_m               none                  factor                1.8249143534E-03      4.5622858836E-04      3.1936001185E-03      alpha_m_gp            1.0000000000E+00      0.0000000000E+00
n_p                   none                  factor                2.0500000000E+00      1.0250000000E+00      3.0750000000E+00      n_p_gp                1.0000000000E+00      0.0000000000E+00
n_m                   none                  factor                2.0500000000E+00      1.0250000000E+00      3.0750000000E+00      n_m_gp                1.0000000000E+00      0.0000000000E+00
wr_p                  none                  factor                2.2432414346E-01      5.6081035865E-02      3.9256725105E-01      wr_p_gp               1.0000000000E+00      0.0000000000E+00
wr_m                  none                  factor                1.5948806481E-01      3.9872016203E-02      2.7910411342E-01      wr_m_gp               1.0000000000E+00      0.0000000000E+00
tcs_p                 none                  factor                4.3957660837E-01      1.0989415209E-01      7.6925906464E-01      tcs_p_gp              1.0000000000E+00      0.0000000000E+00
tcs_m                 none                  factor                9.5210506403E-01      2.3802626601E-01      1.6661838620E+00      tcs_m_gp              1.0000000000E+00      0.0000000000E+00
tcd_p                 none                  factor                1.0102340592E-01      2.5255851480E-02      1.7679096036E-01      tcd_p_gp              1.0000000000E+00      0.0000000000E+00
tcd_m                 none                  factor                9.8440542895E-01      2.4610135724E-01      1.7227095007E+00      tcd_m_gp              1.0000000000E+00      0.0000000000E+00
af_p                  none                  factor                1.5051141504E+00      3.7627853760E-01      2.6339497632E+00      af_p_gp               1.0000000000E+00      0.0000000000E+00
af_m                  none                  factor                1.4993891283E+00      3.7484728208E-01      2.6239309745E+00      af_m_gp               1.0000000000E+00      0.0000000000E+00
auf_p                 none                  factor                4.8693541309E-01      1.2173385327E-01      8.5213697291E-01      auf_p_gp              1.0000000000E+00      0.0000000000E+00
auf_m                 none                  factor                6.9888402864E-01      1.7472100716E-01      1.2230470501E+00      auf_m_gp              1.0000000000E+00      0.0000000000E+00
por_p                 none                  factor                6.3739495707E-01      1.5934873927E-01      1.1154411749E+00      por_p_gp              1.0000000000E+00      0.0000000000E+00
por_m                 none                  factor                4.8103076529E-01      1.2025769132E-01      8.4180383926E-01      por_m_gp              1.0000000000E+00      0.0000000000E+00
perm_p                none                  factor                5.3466221272E-11      1.3366555318E-11      9.3565887226E-11      perm_p_gp             1.0000000000E+00      0.0000000000E+00
perm_m                none                  factor                1.0000000000E-13      2.5000000000E-14      1.7500000000E-13      perm_m_gp             1.0000000000E+00      0.0000000000E+00
den_p                 none                  factor                9.0000000000E+02      2.2500000000E+02      1.5750000000E+03      den_p_gp              1.0000000000E+00      0.0000000000E+00
den_m                 none                  factor                1.9000000000E+03      9.5000000000E+02      2.8500000000E+03      den_m_gp              1.0000000000E+00      0.0000000000E+00
* observation groups
temp
mois
* observation data
 stemp_0.04_0          260.6422       7.573979E-05  temp
 stemp_0.04_1          261.2884       7.573979E-05  temp
 stemp_0.04_2          261.3255       7.573979E-05  temp
 stemp_0.04_3          261.1522       7.573979E-05  temp
 stemp_0.04_4          260.7784       7.573979E-05  temp
 stemp_0.04_5          260.3231       7.573979E-05  temp
 stemp_0.04_6          260.3782       7.573979E-05  temp
 stemp_0.04_7          259.7585       7.573979E-05  temp
 stemp_0.04_8          259.4415       7.573979E-05  temp
 stemp_0.04_9          259.1726       7.573979E-05  temp
 stemp_0.04_10         259.3997       7.573979E-05  temp
 stemp_0.04_11         258.8128       7.573979E-05  temp
 stemp_0.04_12         258.3265       7.573979E-05  temp
 stemp_0.04_13         258.0017       7.573979E-05  temp
 stemp_0.04_14         258.5859       7.573979E-05  temp
 stemp_0.04_15         258.8353       7.573979E-05  temp
 stemp_0.04_16         259.0194       7.573979E-05  temp
 stemp_0.04_17         259.0142       7.573979E-05  temp
 stemp_0.04_18         259.1731       7.573979E-05  temp
 stemp_0.04_19         258.7783       7.573979E-05  temp
 stemp_0.04_20         258.1565       7.573979E-05  temp
 stemp_0.04_21         257.2050       7.573979E-05  temp
 stemp_0.04_22         255.8992       7.573979E-05  temp
 stemp_0.04_23         255.3265       7.573979E-05  temp
 stemp_0.04_24         255.2708       7.573979E-05  temp
 stemp_0.04_25         255.3444       7.573979E-05  temp
 stemp_0.04_26         256.3877       7.573979E-05  temp
 stemp_0.04_27         257.0276       7.573979E-05  temp
 stemp_0.04_28         257.2752       7.573979E-05  temp
 stemp_0.04_29         257.6142       7.573979E-05  temp
 stemp_0.04_30         257.8523       7.573979E-05  temp
 stemp_0.04_31         258.3584       7.573979E-05  temp
 stemp_0.04_32         258.1115       7.573979E-05  temp
 stemp_0.04_33         258.1543       7.573979E-05  temp
 stemp_0.04_34         258.0240       7.573979E-05  temp
 stemp_0.04_35         257.3147       7.573979E-05  temp
 stemp_0.04_36         257.6429       7.573979E-05  temp
 stemp_0.04_37         258.2466       7.573979E-05  temp
 stemp_0.04_38         258.7183       7.573979E-05  temp
 stemp_0.04_39         259.7881       7.573979E-05  temp
 stemp_0.04_40         260.7248       7.573979E-05  temp
 stemp_0.04_41         261.4470       7.573979E-05  temp
 stemp_0.04_42         261.6849       7.573979E-05  temp
 stemp_0.04_43         261.0959       7.573979E-05  temp
 stemp_0.04_44         260.2286       7.573979E-05  temp
 stemp_0.04_45         259.7093       7.573979E-05  temp
 stemp_0.04_46         259.4660       7.573979E-05  temp
 stemp_0.04_47         259.7737       7.573979E-05  temp
 stemp_0.04_48         259.1318       7.573979E-05  temp
 stemp_0.04_49         257.7107       7.573979E-05  temp
 stemp_0.04_50         258.4454       7.573979E-05  temp
 stemp_0.04_51         260.2622       7.573979E-05  temp
 stemp_0.04_52         260.3295       7.573979E-05  temp
 stemp_0.04_53         259.2512       7.573979E-05  temp
 stemp_0.04_54         258.8309       7.573979E-05  temp
 stemp_0.04_55         259.5171       7.573979E-05  temp
 stemp_0.04_56         260.7429       7.573979E-05  temp
 stemp_0.04_57         261.9282       7.573979E-05  temp
 stemp_0.04_58         262.9612       7.573979E-05  temp
 stemp_0.04_59         263.9252       7.573979E-05  temp
 stemp_0.04_60         263.8185       7.573979E-05  temp
 stemp_0.04_61         263.7587       7.573979E-05  temp
 stemp_0.04_62         264.8083       7.573979E-05  temp
 stemp_0.04_63         264.1016       7.573979E-05  temp
 stemp_0.04_64         264.3032       7.573979E-05  temp
 stemp_0.04_65         265.5906       7.573979E-05  temp
 stemp_0.04_66         265.9220       7.573979E-05  temp
 stemp_0.04_67         265.5901       7.573979E-05  temp
 stemp_0.04_68         264.0286       7.573979E-05  temp
 stemp_0.04_69         263.0361       7.573979E-05  temp
 stemp_0.04_70         264.5615       7.573979E-05  temp
 stemp_0.04_71         265.3491       7.573979E-05  temp
 stemp_0.04_72         264.9164       7.573979E-05  temp
 stemp_0.04_73         266.0401       7.573979E-05  temp
 stemp_0.04_74         266.6398       7.573979E-05  temp
 stemp_0.04_75         267.2621       7.573979E-05  temp
 stemp_0.04_76         266.6132       7.573979E-05  temp
 stemp_0.04_77         265.6243       7.573979E-05  temp
 stemp_0.04_78         266.2135       7.573979E-05  temp
 stemp_0.04_79         266.3919       7.573979E-05  temp
 stemp_0.04_80         266.6221       7.573979E-05  temp
 stemp_0.04_81         266.3259       7.573979E-05  temp
 stemp_0.04_82         265.8073       7.573979E-05  temp
 stemp_0.04_83         265.1075       7.573979E-05  temp
 stemp_0.04_84         264.6348       7.573979E-05  temp
 stemp_0.04_85         264.4992       7.573979E-05  temp
 stemp_0.04_86         264.8343       7.573979E-05  temp
 stemp_0.04_87         265.5735       7.573979E-05  temp
 stemp_0.04_88         265.7525       7.573979E-05  temp
 stemp_0.04_89         265.8740       7.573979E-05  temp
 stemp_0.04_90         266.0267       7.573979E-05  temp
 stemp_0.04_91         266.1018       7.573979E-05  temp
 stemp_0.04_92         267.3877       7.573979E-05  temp
 stemp_0.04_93         269.0521       7.573979E-05  temp
 stemp_0.04_94         270.1008       7.573979E-05  temp
 stemp_0.04_95         269.9815       7.573979E-05  temp
 stemp_0.04_96         269.8499       7.573979E-05  temp
 stemp_0.04_97         269.3528       7.573979E-05  temp
 stemp_0.04_98         268.4995       7.573979E-05  temp
 stemp_0.04_99         269.0342       7.573979E-05  temp
 stemp_0.04_100        270.1398       7.573979E-05  temp
 stemp_0.04_101        269.4614       7.573979E-05  temp
 stemp_0.04_102        269.0046       7.573979E-05  temp
 stemp_0.04_103        270.0126       7.573979E-05  temp
 stemp_0.04_104        271.0169       7.573979E-05  temp
 stemp_0.04_105        270.8028       7.573979E-05  temp
 stemp_0.04_106        270.1059       7.573979E-05  temp
 stemp_0.04_107        268.7385       7.573979E-05  temp
 stemp_0.04_108        268.1435       7.573979E-05  temp
 stemp_0.04_109        268.3832       7.573979E-05  temp
 stemp_0.04_110        268.8164       7.573979E-05  temp
 stemp_0.04_111        268.8719       7.573979E-05  temp
 stemp_0.04_112        269.1462       7.573979E-05  temp
 stemp_0.04_113        268.8423       7.573979E-05  temp
 stemp_0.04_114        268.8124       7.573979E-05  temp
 stemp_0.04_115        269.0974       7.573979E-05  temp
 stemp_0.04_116        268.9289       7.573979E-05  temp
 stemp_0.04_117        268.8130       7.573979E-05  temp
 stemp_0.04_118        269.1563       7.573979E-05  temp
 stemp_0.04_119        269.6102       7.573979E-05  temp
 stemp_0.04_120        270.4184       7.573979E-05  temp
 stemp_0.04_121        271.0252       7.573979E-05  temp
 stemp_0.04_122        270.2244       7.573979E-05  temp
 stemp_0.04_123        270.6433       7.573979E-05  temp
 stemp_0.04_124        271.2967       7.573979E-05  temp
 stemp_0.04_125        271.6958       7.573979E-05  temp
 stemp_0.04_126        272.0667       7.573979E-05  temp
 stemp_0.04_127        272.1569       7.573979E-05  temp
 stemp_0.04_128        272.2996       7.573979E-05  temp
 stemp_0.04_129        272.5481       7.573979E-05  temp
 stemp_0.04_130        272.8848       7.573979E-05  temp
 stemp_0.04_131        273.2517       7.573979E-05  temp
 stemp_0.04_132        273.2087       7.573979E-05  temp
 stemp_0.04_133        272.7135       7.573979E-05  temp
 stemp_0.04_134        272.6865       7.573979E-05  temp
 stemp_0.04_135        272.6782       7.573979E-05  temp
 stemp_0.04_136        272.7012       7.573979E-05  temp
 stemp_0.04_137        273.1089       7.573979E-05  temp
 stemp_0.04_138        272.9640       7.573979E-05  temp
 stemp_0.04_139        273.4366       7.573979E-05  temp
 stemp_0.04_140        272.7154       7.573979E-05  temp
 stemp_0.04_141        272.7095       7.573979E-05  temp
 stemp_0.04_142        272.7060       7.573979E-05  temp
 stemp_0.04_143        272.6922       7.573979E-05  temp
 stemp_0.04_144        272.6905       7.573979E-05  temp
 stemp_0.04_145        272.7073       7.573979E-05  temp
 stemp_0.04_146        272.6925       7.573979E-05  temp
 stemp_0.04_147        272.6990       7.573979E-05  temp
 stemp_0.04_148        272.7179       7.573979E-05  temp
 stemp_0.04_149        272.7317       7.573979E-05  temp
 stemp_0.04_150        272.7305       7.573979E-05  temp
 stemp_0.04_151        272.7303       7.573979E-05  temp
 stemp_0.04_152        272.7279       7.573979E-05  temp
 stemp_0.04_153        272.7269       7.573979E-05  temp
 stemp_0.04_154        272.7269       7.573979E-05  temp
 stemp_0.04_155        272.7254       7.573979E-05  temp
 stemp_0.04_156        272.9791       7.573979E-05  temp
 stemp_0.04_157        272.9630       7.573979E-05  temp
 stemp_0.04_158        274.0920       7.573979E-05  temp
 stemp_0.04_159        274.3000       7.573979E-05  temp
 stemp_0.04_160        275.2523       7.573979E-05  temp
 stemp_0.04_161        274.5942       7.573979E-05  temp
 stemp_0.04_162        273.4343       7.573979E-05  temp
 stemp_0.04_163        275.6356       7.573979E-05  temp
 stemp_0.04_164        276.1764       7.573979E-05  temp
 stemp_0.04_165        275.5305       7.573979E-05  temp
 stemp_0.04_166        275.1605       7.573979E-05  temp
 stemp_0.04_167        276.8637       7.573979E-05  temp
 stemp_0.04_168        277.3925       7.573979E-05  temp
 stemp_0.04_169        277.2808       7.573979E-05  temp
 stemp_0.04_170        277.9391       7.573979E-05  temp
 stemp_0.04_171        278.4953       7.573979E-05  temp
 stemp_0.04_172        278.9607       7.573979E-05  temp
 stemp_0.04_173        277.5832       7.573979E-05  temp
 stemp_0.04_174        277.1105       7.573979E-05  temp
 stemp_0.04_175        277.3246       7.573979E-05  temp
 stemp_0.04_176        276.6009       7.573979E-05  temp
 stemp_0.04_177        277.9881       7.573979E-05  temp
 stemp_0.04_178        278.1971       7.573979E-05  temp
 stemp_0.04_179        278.2377       7.573979E-05  temp
 stemp_0.04_180        278.2325       7.573979E-05  temp
 stemp_0.04_181        277.7550       7.573979E-05  temp
 stemp_0.04_182        277.8719       7.573979E-05  temp
 stemp_0.04_183        276.9988       7.573979E-05  temp
 stemp_0.04_184        278.9223       7.573979E-05  temp
 stemp_0.04_185        280.9022       7.573979E-05  temp
 stemp_0.04_186        282.1959       7.573979E-05  temp
 stemp_0.04_187        282.2921       7.573979E-05  temp
 stemp_0.04_188        282.9179       7.573979E-05  temp
 stemp_0.04_189        281.8124       7.573979E-05  temp
 stemp_0.04_190        281.3353       7.573979E-05  temp
 stemp_0.04_191        280.5291       7.573979E-05  temp
 stemp_0.04_192        278.6534       7.573979E-05  temp
 stemp_0.04_193        279.6882       7.573979E-05  temp
 stemp_0.04_194        279.8552       7.573979E-05  temp
 stemp_0.04_195        279.3192       7.573979E-05  temp
 stemp_0.04_196        279.7512       7.573979E-05  temp
 stemp_0.04_197        280.6219       7.573979E-05  temp
 stemp_0.04_198        279.5577       7.573979E-05  temp
 stemp_0.04_199        279.8601       7.573979E-05  temp
 stemp_0.04_200        281.6848       7.573979E-05  temp
 stemp_0.04_201        282.2242       7.573979E-05  temp
 stemp_0.04_202        280.2226       7.573979E-05  temp
 stemp_0.04_203        282.0579       7.573979E-05  temp
 stemp_0.04_204        279.7237       7.573979E-05  temp
 stemp_0.04_205        280.5487       7.573979E-05  temp
 stemp_0.04_206        281.2653       7.573979E-05  temp
 stemp_0.04_207        280.8960       7.573979E-05  temp
 stemp_0.04_208        280.7478       7.573979E-05  temp
 stemp_0.04_209        280.3302       7.573979E-05  temp
 stemp_0.04_210        281.4321       7.573979E-05  temp
 stemp_0.04_211        282.9992       7.573979E-05  temp
 stemp_0.04_212        283.4543       7.573979E-05  temp
 stemp_0.04_213        283.5799       7.573979E-05  temp
 stemp_0.04_214        282.3433       7.573979E-05  temp
 stemp_0.04_215        282.5928       7.573979E-05  temp
 stemp_0.04_216        282.5570       7.573979E-05  temp
 stemp_0.04_217        283.4523       7.573979E-05  temp
 stemp_0.04_218        284.1040       7.573979E-05  temp
 stemp_0.04_219        285.1003       7.573979E-05  temp
 stemp_0.04_220        285.7988       7.573979E-05  temp
 stemp_0.04_221        285.7662       7.573979E-05  temp
 stemp_0.04_222        282.6406       7.573979E-05  temp
 stemp_0.04_223        282.1086       7.573979E-05  temp
 stemp_0.04_224        282.0749       7.573979E-05  temp
 stemp_0.04_225        282.4388       7.573979E-05  temp
 stemp_0.04_226        281.8940       7.573979E-05  temp
 stemp_0.04_227        282.9887       7.573979E-05  temp
 stemp_0.04_228        285.6069       7.573979E-05  temp
 stemp_0.04_229        285.7871       7.573979E-05  temp
 stemp_0.04_230        283.1528       7.573979E-05  temp
 stemp_0.04_231        282.1263       7.573979E-05  temp
 stemp_0.04_232        284.1936       7.573979E-05  temp
 stemp_0.04_233        283.7884       7.573979E-05  temp
 stemp_0.04_234        284.2902       7.573979E-05  temp
 stemp_0.04_235        284.3041       7.573979E-05  temp
 stemp_0.04_236        281.9748       7.573979E-05  temp
 stemp_0.04_237        281.1965       7.573979E-05  temp
 stemp_0.04_238        282.5826       7.573979E-05  temp
 stemp_0.04_239        283.2437       7.573979E-05  temp
 stemp_0.04_240        283.2896       7.573979E-05  temp
 stemp_0.04_241        279.4255       7.573979E-05  temp
 stemp_0.04_242        278.5328       7.573979E-05  temp
 stemp_0.04_243        280.5262       7.573979E-05  temp
 stemp_0.04_244        278.2858       7.573979E-05  temp
 stemp_0.04_245        277.4016       7.573979E-05  temp
 stemp_0.04_246        278.1212       7.573979E-05  temp
 stemp_0.04_247        278.5556       7.573979E-05  temp
 stemp_0.04_248        274.9897       7.573979E-05  temp
 stemp_0.04_249        274.6061       7.573979E-05  temp
 stemp_0.04_250        275.9814       7.573979E-05  temp
 stemp_0.04_251        274.9464       7.573979E-05  temp
 stemp_0.04_252        273.6863       7.573979E-05  temp
 stemp_0.04_253        273.5208       7.573979E-05  temp
 stemp_0.04_254        273.5649       7.573979E-05  temp
 stemp_0.04_255        274.2143       7.573979E-05  temp
 stemp_0.04_256        276.2223       7.573979E-05  temp
 stemp_0.04_257        277.6876       7.573979E-05  temp
 stemp_0.04_258        278.4937       7.573979E-05  temp
 stemp_0.04_259        275.6506       7.573979E-05  temp
 stemp_0.04_260        275.1672       7.573979E-05  temp
 stemp_0.04_261        276.0976       7.573979E-05  temp
 stemp_0.04_262        274.1994       7.573979E-05  temp
 stemp_0.04_263        274.0038       7.573979E-05  temp
 stemp_0.04_264        275.0048       7.573979E-05  temp
 stemp_0.04_265        276.2755       7.573979E-05  temp
 stemp_0.04_266        275.4686       7.573979E-05  temp
 stemp_0.04_267        274.5736       7.573979E-05  temp
 stemp_0.04_268        274.5128       7.573979E-05  temp
 stemp_0.04_269        275.3435       7.573979E-05  temp
 stemp_0.04_270        276.3101       7.573979E-05  temp
 stemp_0.04_271        275.4343       7.573979E-05  temp
 stemp_0.04_272        275.4683       7.573979E-05  temp
 stemp_0.04_273        275.2444       7.573979E-05  temp
 stemp_0.04_274        275.0474       7.573979E-05  temp
 stemp_0.04_275        274.7800       7.573979E-05  temp
 stemp_0.04_276        274.5184       7.573979E-05  temp
 stemp_0.04_277        273.5466       7.573979E-05  temp
 stemp_0.04_278        273.0760       7.573979E-05  temp
 stemp_0.04_279        272.8821       7.573979E-05  temp
 stemp_0.04_280        272.6939       7.573979E-05  temp
 stemp_0.04_281        272.5545       7.573979E-05  temp
 stemp_0.04_282        272.6634       7.573979E-05  temp
 stemp_0.04_283        272.6075       7.573979E-05  temp
 stemp_0.04_284        272.6826       7.573979E-05  temp
 stemp_0.04_285        272.6869       7.573979E-05  temp
 stemp_0.04_286        272.6444       7.573979E-05  temp
 stemp_0.04_287        272.6246       7.573979E-05  temp
 stemp_0.04_288        272.6759       7.573979E-05  temp
 stemp_0.04_289        272.6709       7.573979E-05  temp
 stemp_0.04_290        272.6454       7.573979E-05  temp
 stemp_0.04_291        272.5805       7.573979E-05  temp
 stemp_0.04_292        272.3754       7.573979E-05  temp
 stemp_0.04_293        272.3361       7.573979E-05  temp
 stemp_0.04_294        272.5313       7.573979E-05  temp
 stemp_0.04_295        272.4842       7.573979E-05  temp
 stemp_0.04_296        272.4222       7.573979E-05  temp
 stemp_0.04_297        272.4232       7.573979E-05  temp
 stemp_0.04_298        272.2808       7.573979E-05  temp
 stemp_0.04_299        272.0948       7.573979E-05  temp
 stemp_0.04_300        272.0762       7.573979E-05  temp
 stemp_0.04_301        272.1580       7.573979E-05  temp
 stemp_0.04_302        271.5844       7.573979E-05  temp
 stemp_0.04_303        270.7235       7.573979E-05  temp
 stemp_0.04_304        270.2019       7.573979E-05  temp
 stemp_0.04_305        269.8617       7.573979E-05  temp
 stemp_0.04_306        269.5375       7.573979E-05  temp
 stemp_0.04_307        269.5388       7.573979E-05  temp
 stemp_0.04_308        269.1378       7.573979E-05  temp
 stemp_0.04_309        268.8667       7.573979E-05  temp
 stemp_0.04_310        269.7181       7.573979E-05  temp
 stemp_0.04_311        269.7877       7.573979E-05  temp
 stemp_0.04_312        269.2810       7.573979E-05  temp
 stemp_0.04_313        269.1324       7.573979E-05  temp
 stemp_0.04_314        267.5129       7.573979E-05  temp
 stemp_0.04_315        266.8702       7.573979E-05  temp
 stemp_0.04_316        266.5883       7.573979E-05  temp
 stemp_0.04_317        266.3710       7.573979E-05  temp
 stemp_0.04_318        266.5288       7.573979E-05  temp
 stemp_0.04_319        266.6744       7.573979E-05  temp
 stemp_0.04_320        266.5109       7.573979E-05  temp
 stemp_0.04_321        266.5552       7.573979E-05  temp
 stemp_0.04_322        266.5798       7.573979E-05  temp
 stemp_0.04_323        266.0435       7.573979E-05  temp
 stemp_0.04_324        265.9557       7.573979E-05  temp
 stemp_0.04_325        266.6144       7.573979E-05  temp
 stemp_0.04_326        266.2462       7.573979E-05  temp
 stemp_0.04_327        267.1019       7.573979E-05  temp
 stemp_0.04_328        267.1112       7.573979E-05  temp
 stemp_0.04_329        266.6045       7.573979E-05  temp
 stemp_0.04_330        264.9005       7.573979E-05  temp
 stemp_0.04_331        263.2360       7.573979E-05  temp
 stemp_0.04_332        263.5501       7.573979E-05  temp
 stemp_0.04_333        262.7032       7.573979E-05  temp
 stemp_0.04_334        261.8657       7.573979E-05  temp
 stemp_0.04_335        261.7105       7.573979E-05  temp
 stemp_0.04_336        262.7760       7.573979E-05  temp
 stemp_0.04_337        262.8947       7.573979E-05  temp
 stemp_0.04_338        263.7196       7.573979E-05  temp
 stemp_0.04_339        263.6229       7.573979E-05  temp
 stemp_0.04_340        264.4829       7.573979E-05  temp
 stemp_0.04_341        264.4072       7.573979E-05  temp
 stemp_0.04_342        265.5988       7.573979E-05  temp
 stemp_0.04_343        265.9974       7.573979E-05  temp
 stemp_0.04_344        265.3558       7.573979E-05  temp
 stemp_0.04_345        265.2583       7.573979E-05  temp
 stemp_0.04_346        264.9800       7.573979E-05  temp
 stemp_0.04_347        264.6995       7.573979E-05  temp
 stemp_0.04_348        263.2973       7.573979E-05  temp
 stemp_0.04_349        263.0577       7.573979E-05  temp
 stemp_0.04_350        262.4848       7.573979E-05  temp
 stemp_0.04_351        262.7784       7.573979E-05  temp
 stemp_0.04_352        262.3520       7.573979E-05  temp
 stemp_0.04_353        263.1828       7.573979E-05  temp
 stemp_0.04_354        262.8236       7.573979E-05  temp
 stemp_0.04_355        262.1674       7.573979E-05  temp
 stemp_0.04_356        261.8073       7.573979E-05  temp
 stemp_0.04_357        262.0643       7.573979E-05  temp
 stemp_0.04_358        262.7485       7.573979E-05  temp
 stemp_0.04_359        261.4698       7.573979E-05  temp
 stemp_0.04_360        259.9898       7.573979E-05  temp
 stemp_0.04_361        258.8441       7.573979E-05  temp
 stemp_0.04_362        258.9565       7.573979E-05  temp
 stemp_0.04_363        259.1844       7.573979E-05  temp
 stemp_0.04_364        259.9625       7.573979E-05  temp
 stemp_0.04_365        260.9203       7.573979E-05  temp
 stemp_0.04_366        261.0233       7.573979E-05  temp
 stemp_0.04_367        261.0067       7.573979E-05  temp
 stemp_0.04_368        260.8549       7.573979E-05  temp
 stemp_0.04_369        261.0327       7.573979E-05  temp
 stemp_0.04_370        261.3470       7.573979E-05  temp
 stemp_0.04_371        261.0806       7.573979E-05  temp
 stemp_0.04_372        261.1825       7.573979E-05  temp
 stemp_0.04_373        260.6165       7.573979E-05  temp
 stemp_0.04_374        260.0583       7.573979E-05  temp
 stemp_0.04_375        260.6804       7.573979E-05  temp
 stemp_0.04_376        259.4002       7.573979E-05  temp
 stemp_0.04_377        258.0874       7.573979E-05  temp
 stemp_0.04_378        258.4664       7.573979E-05  temp
 stemp_0.04_379        258.4739       7.573979E-05  temp
 stemp_0.04_380        258.4656       7.573979E-05  temp
 stemp_0.04_381        257.2475       7.573979E-05  temp