pcf
* control data
             restart          estimation
         4      5110         4         0         2
         1         1              single               point
   2.000000E+01  -3.000000E+00   3.000000E-01   1.000000E-02        -7
   1.000000E+01   1.000000E+01   1.000000E-03
   1.000000E-01
   50  1.000000E-02         3         3   1.000000E-02         3
         0         0         0
* singular value decomposition
         1
  10000000    1.000000E-06
1
* parameter groups
n_m_gp                 relative              3.0000000000E-01      0.0 switch                1.0000000000E+00      parabolic             1.0000000000E-05      5.0000000000E-01      smaller
tcs_m_gp               relative              5.0000000000E-01      0.0 switch                1.0000000000E+00      parabolic             1.0000000000E-05      5.0000000000E-01      smaller
af_m_gp                relative              2.0000000000E-01      0.0 switch                1.0000000000E+00      parabolic             1.0000000000E-05      5.0000000000E-01      smaller
af_p_gp                relative              2.0000000000E-01      0.0 switch                1.0000000000E+00      parabolic             1.0000000000E-05      5.0000000000E-01      smaller
* parameter data
n_m                   none                  factor                1.2000000000E+00      1.0500000000E+00      3.0000000000E+00      n_m_gp                1.0000000000E+00      0.0000000000E+00
tcs_m                 none                  factor                1.0000000000E+00      8.0000000000E-01      2.5000000000E+00      tcs_m_gp              1.0000000000E+00      0.0000000000E+00
af_m                  none                  factor                5.0000000000E-02      2.0000000000E-02      1.0000000000E-01      af_m_gp               1.0000000000E+00      0.0000000000E+00
af_p                  none                  factor                5.0000000000E-03      2.0000000000E-03      1.0000000000E-02      af_p_gp               1.0000000000E+00      0.0000000000E+00
* observation groups
temp
mois
* observation data
 stemp_0.04_0          261.0233       1.508142E-04  temp
 stemp_0.04_1          261.0067       1.508142E-04  temp
 stemp_0.04_2          260.8549       1.508142E-04  temp
 stemp_0.04_3          261.0327       1.508142E-04  temp
 stemp_0.04_4          261.3470       1.508142E-04  temp
 stemp_0.04_5          261.0806       1.508142E-04  temp
 stemp_0.04_6          261.1825       1.508142E-04  temp
 stemp_0.04_7          260.6165       1.508142E-04  temp
 stemp_0.04_8          260.0583       1.508142E-04  temp
 stemp_0.04_9          260.6804       1.508142E-04  temp
 stemp_0.04_10         259.4002       1.508142E-04  temp
 stemp_0.04_11         258.0874       1.508142E-04  temp
 stemp_0.04_12         258.4664       1.508142E-04  temp
 stemp_0.04_13         258.4739       1.508142E-04  temp
 stemp_0.04_14         258.4656       1.508142E-04  temp
 stemp_0.04_15         257.2475       1.508142E-04  temp
 stemp_0.04_16         256.8807       1.508142E-04  temp
 stemp_0.04_17         257.2833       1.508142E-04  temp
 stemp_0.04_18         256.7728       1.508142E-04  temp
 stemp_0.04_19         257.1543       1.508142E-04  temp
 stemp_0.04_20         257.7903       1.508142E-04  temp
 stemp_0.04_21         258.6003       1.508142E-04  temp
 stemp_0.04_22         259.1631       1.508142E-04  temp
 stemp_0.04_23         260.0054       1.508142E-04  temp
 stemp_0.04_24         261.4232       1.508142E-04  temp
 stemp_0.04_25         262.3889       1.508142E-04  temp
 stemp_0.04_26         262.8389       1.508142E-04  temp
 stemp_0.04_27         263.0507       1.508142E-04  temp
 stemp_0.04_28         261.9409       1.508142E-04  temp
 stemp_0.04_29         261.0121       1.508142E-04  temp
 stemp_0.04_30         260.3410       1.508142E-04  temp
 stemp_0.04_31         260.1183       1.508142E-04  temp
 stemp_0.04_32         261.2094       1.508142E-04  temp
 stemp_0.04_33         262.1231       1.508142E-04  temp
 stemp_0.04_34         263.8223       1.508142E-04  temp
 stemp_0.04_35         264.9146       1.508142E-04  temp
 stemp_0.04_36         265.2462       1.508142E-04  temp
 stemp_0.04_37         262.0612       1.508142E-04  temp
 stemp_0.04_38         260.9578       1.508142E-04  temp
 stemp_0.04_39         260.2153       1.508142E-04  temp
 stemp_0.04_40         259.5873       1.508142E-04  temp
 stemp_0.04_41         259.2258       1.508142E-04  temp
 stemp_0.04_42         259.4401       1.508142E-04  temp
 stemp_0.04_43         260.1085       1.508142E-04  temp
 stemp_0.04_44         260.1823       1.508142E-04  temp
 stemp_0.04_45         261.2820       1.508142E-04  temp
 stemp_0.04_46         262.1871       1.508142E-04  temp
 stemp_0.04_47         262.7193       1.508142E-04  temp
 stemp_0.04_48         263.7728       1.508142E-04  temp
 stemp_0.04_49         265.4898       1.508142E-04  temp
 stemp_0.04_50         266.7219       1.508142E-04  temp
 stemp_0.04_51         265.5545       1.508142E-04  temp
 stemp_0.04_52         264.3637       1.508142E-04  temp
 stemp_0.04_53         263.4216       1.508142E-04  temp
 stemp_0.04_54         263.1912       1.508142E-04  temp
 stemp_0.04_55         262.9610       1.508142E-04  temp
 stemp_0.04_56         262.1898       1.508142E-04  temp
 stemp_0.04_57         261.5663       1.508142E-04  temp
 stemp_0.04_58         261.9117       1.508142E-04  temp
 stemp_0.04_59         261.3978       1.508142E-04  temp
 stemp_0.04_60         261.2585       1.508142E-04  temp
 stemp_0.04_61         261.0341       1.508142E-04  temp
 stemp_0.04_62         261.0553       1.508142E-04  temp
 stemp_0.04_63         261.3179       1.508142E-04  temp
 stemp_0.04_64         261.3642       1.508142E-04  temp
 stemp_0.04_65         261.3342       1.508142E-04  temp
 stemp_0.04_66         261.2200       1.508142E-04  temp
 stemp_0.04_67         261.2840       1.508142E-04  temp
 stemp_0.04_68         261.6385       1.508142E-04  temp
 stemp_0.04_69         262.0820       1.508142E-04  temp
 stemp_0.04_70         262.2433       1.508142E-04  temp
 stemp_0.04_71         262.5278       1.508142E-04  temp
 stemp_0.04_72         262.6594       1.508142E-04  temp
 stemp_0.04_73         262.8206       1.508142E-04  temp
 stemp_0.04_74         262.8366       1.508142E-04  temp
 stemp_0.04_75         262.8841       1.508142E-04  temp
 stemp_0.04_76         262.9342       1.508142E-04  temp
 stemp_0.04_77         263.2305       1.508142E-04  temp
 stemp_0.04_78         263.1347       1.508142E-04  temp
 stemp_0.04_79         263.3818       1.508142E-04  temp
 stemp_0.04_80         263.5645       1.508142E-04  temp
 stemp_0.04_81         263.8026       1.508142E-04  temp
 stemp_0.04_82         263.5293       1.508142E-04  temp
 stemp_0.04_83         263.1002       1.508142E-04  temp
 stemp_0.04_84         262.8289       1.508142E-04  temp
 stemp_0.04_85         263.3594       1.508142E-04  temp
 stemp_0.04_86         263.8808       1.508142E-04  temp
 stemp_0.04_87         264.1306       1.508142E-04  temp
 stemp_0.04_88         263.9248       1.508142E-04  temp
 stemp_0.04_89         263.6849       1.508142E-04  temp
 stemp_0.04_90         263.6647       1.508142E-04  temp
 stemp_0.04_91         264.0065       1.508142E-04  temp
 stemp_0.04_92         264.6052       1.508142E-04  temp
 stemp_0.04_93         264.6382       1.508142E-04  temp
 stemp_0.04_94         264.8182       1.508142E-04  temp
 stemp_0.04_95         265.3282       1.508142E-04  temp
 stemp_0.04_96         266.0169       1.508142E-04  temp
 stemp_0.04_97         266.3618       1.508142E-04  temp
 stemp_0.04_98         266.6916       1.508142E-04  temp
 stemp_0.04_99         266.6327       1.508142E-04  temp
 stemp_0.04_100        266.4116       1.508142E-04  temp
 stemp_0.04_101        266.1762       1.508142E-04  temp
 stemp_0.04_102        265.7503       1.508142E-04  temp
 stemp_0.04_103        265.7711       1.508142E-04  temp
 stemp_0.04_104        266.2997       1.508142E-04  temp
 stemp_0.04_105        266.4760       1.508142E-04  temp
 stemp_0.04_106        266.3723       1.508142E-04  temp
 stemp_0.04_107        266.7075       1.508142E-04  temp
 stemp_0.04_108        267.3286       1.508142E-04  temp
 stemp_0.04_109        266.9043       1.508142E-04  temp
 stemp_0.04_110        266.6271       1.508142E-04  temp
 stemp_0.04_111        266.7585       1.508142E-04  temp
 stemp_0.04_112        267.3010       1.508142E-04  temp
 stemp_0.04_113        268.6842       1.508142E-04  temp
 stemp_0.04_114        268.8965       1.508142E-04  temp
 stemp_0.04_115        268.8792       1.508142E-04  temp
 stemp_0.04_116        268.7691       1.508142E-04  temp
 stemp_0.04_117        268.6163       1.508142E-04  temp
 stemp_0.04_118        268.8405       1.508142E-04  temp
 stemp_0.04_119        268.8170       1.508142E-04  temp
 stemp_0.04_120        269.4814       1.508142E-04  temp
 stemp_0.04_121        271.5926       1.508142E-04  temp
 stemp_0.04_122        271.6686       1.508142E-04  temp
 stemp_0.04_123        271.1575       1.508142E-04  temp
 stemp_0.04_124        269.9889       1.508142E-04  temp
 stemp_0.04_125        269.7168       1.508142E-04  temp
 stemp_0.04_126        269.8385       1.508142E-04  temp
 stemp_0.04_127        269.1709       1.508142E-04  temp
 stemp_0.04_128        269.0238       1.508142E-04  temp
 stemp_0.04_129        269.4626       1.508142E-04  temp
 stemp_0.04_130        269.6704       1.508142E-04  temp
 stemp_0.04_131        270.7287       1.508142E-04  temp
 stemp_0.04_132        271.6937       1.508142E-04  temp
 stemp_0.04_133        271.6435       1.508142E-04  temp
 stemp_0.04_134        271.9904       1.508142E-04  temp
 stemp_0.04_135        271.9954       1.508142E-04  temp
 stemp_0.04_136        272.0211       1.508142E-04  temp
 stemp_0.04_137        272.1001       1.508142E-04  temp
 stemp_0.04_138        272.2219       1.508142E-04  temp
 stemp_0.04_139        272.4339       1.508142E-04  temp
 stemp_0.04_140        272.5418       1.508142E-04  temp
 stemp_0.04_141        272.5397       1.508142E-04  temp
 stemp_0.04_142        272.5387       1.508142E-04  temp
 stemp_0.04_143        272.5371       1.508142E-04  temp
 stemp_0.04_144        272.5356       1.508142E-04  temp
 stemp_0.04_145        272.5343       1.508142E-04  temp
 stemp_0.04_146        272.5342       1.508142E-04  temp
 stemp_0.04_147        272.7581       1.508142E-04  temp
 stemp_0.04_148        273.3829       1.508142E-04  temp
 stemp_0.04_149        273.5258       1.508142E-04  temp
 stemp_0.04_150        272.6980       1.508142E-04  temp
 stemp_0.04_151        274.5373       1.508142E-04  temp
 stemp_0.04_152        273.1936       1.508142E-04  temp
 stemp_0.04_153        272.5790       1.508142E-04  temp
 stemp_0.04_154        272.5738       1.508142E-04  temp
 stemp_0.04_155        272.5732       1.508142E-04  temp
 stemp_0.04_156        272.5719       1.508142E-04  temp
 stemp_0.04_157        272.5734       1.508142E-04  temp
 stemp_0.04_158        272.5727       1.508142E-04  temp
 stemp_0.04_159        272.5750       1.508142E-04  temp
 stemp_0.04_160        272.5740       1.508142E-04  temp
 stemp_0.04_161        272.5745       1.508142E-04  temp
 stemp_0.04_162        272.5741       1.508142E-04  temp
 stemp_0.04_163        272.5742       1.508142E-04  temp
 stemp_0.04_164        272.5743       1.508142E-04  temp
 stemp_0.04_165        272.6463       1.508142E-04  temp
 stemp_0.04_166        276.1282       1.508142E-04  temp
 stemp_0.04_167        275.5136       1.508142E-04  temp
 stemp_0.04_168        276.2213       1.508142E-04  temp
 stemp_0.04_169        276.7396       1.508142E-04  temp
 stemp_0.04_170        275.6444       1.508142E-04  temp
 stemp_0.04_171        276.2547       1.508142E-04  temp
 stemp_0.04_172        277.6312       1.508142E-04  temp
 stemp_0.04_173        278.5636       1.508142E-04  temp
 stemp_0.04_174        277.2921       1.508142E-04  temp
 stemp_0.04_175        277.8599       1.508142E-04  temp
 stemp_0.04_176        278.3179       1.508142E-04  temp
 stemp_0.04_177        278.7727       1.508142E-04  temp
 stemp_0.04_178        277.1729       1.508142E-04  temp
 stemp_0.04_179        278.0941       1.508142E-04  temp
 stemp_0.04_180        279.8994       1.508142E-04  temp
 stemp_0.04_181        279.9387       1.508142E-04  temp
 stemp_0.04_182        277.5739       1.508142E-04  temp
 stemp_0.04_183        278.3882       1.508142E-04  temp
 stemp_0.04_184        277.6215       1.508142E-04  temp
 stemp_0.04_185        278.9399       1.508142E-04  temp
 stemp_0.04_186        280.7842       1.508142E-04  temp
 stemp_0.04_187        279.5436       1.508142E-04  temp
 stemp_0.04_188        275.5193       1.508142E-04  temp
 stemp_0.04_189        278.0165       1.508142E-04  temp
 stemp_0.04_190        279.4866       1.508142E-04  temp
 stemp_0.04_191        280.7946       1.508142E-04  temp
 stemp_0.04_192        282.2027       1.508142E-04  temp
 stemp_0.04_193        281.3977       1.508142E-04  temp
 stemp_0.04_194        281.9274       1.508142E-04  temp
 stemp_0.04_195        282.7236       1.508142E-04  temp
 stemp_0.04_196        283.4624       1.508142E-04  temp
 stemp_0.04_197        283.9437       1.508142E-04  temp
 stemp_0.04_198        283.4050       1.508142E-04  temp
 stemp_0.04_199        283.8435       1.508142E-04  temp
 stemp_0.04_200        283.3586       1.508142E-04  temp
 stemp_0.04_201        283.8656       1.508142E-04  temp
 stemp_0.04_202        283.6877       1.508142E-04  temp
 stemp_0.04_203        281.2285       1.508142E-04  temp
 stemp_0.04_204        279.6261       1.508142E-04  temp
 stemp_0.04_205        282.4084       1.508142E-04  temp
 stemp_0.04_206        278.1311       1.508142E-04  temp
 stemp_0.04_207        278.3339       1.508142E-04  temp
 stemp_0.04_208        279.8075       1.508142E-04  temp
 stemp_0.04_209        281.2026       1.508142E-04  temp
 stemp_0.04_210        281.7236       1.508142E-04  temp
 stemp_0.04_211        280.2412       1.508142E-04  temp
 stemp_0.04_212        278.6738       1.508142E-04  temp
 stemp_0.04_213        281.1141       1.508142E-04  temp
 stemp_0.04_214        280.5550       1.508142E-04  temp
 stemp_0.04_215        282.0935       1.508142E-04  temp
 stemp_0.04_216        283.0179       1.508142E-04  temp
 stemp_0.04_217        280.0742       1.508142E-04  temp
 stemp_0.04_218        280.2496       1.508142E-04  temp
 stemp_0.04_219        279.4514       1.508142E-04  temp
 stemp_0.04_220        279.6622       1.508142E-04  temp
 stemp_0.04_221        279.6302       1.508142E-04  temp
 stemp_0.04_222        278.8429       1.508142E-04  temp
 stemp_0.04_223        279.8457       1.508142E-04  temp
 stemp_0.04_224        281.0519       1.508142E-04  temp
 stemp_0.04_225        281.0242       1.508142E-04  temp
 stemp_0.04_226        282.0986       1.508142E-04  temp
 stemp_0.04_227        282.6879       1.508142E-04  temp
 stemp_0.04_228        281.9771       1.508142E-04  temp
 stemp_0.04_229        283.3551       1.508142E-04  temp
 stemp_0.04_230        280.5703       1.508142E-04  temp
 stemp_0.04_231        281.3964       1.508142E-04  temp
 stemp_0.04_232        280.1848       1.508142E-04  temp
 stemp_0.04_233        279.6283       1.508142E-04  temp
 stemp_0.04_234        280.4669       1.508142E-04  temp
 stemp_0.04_235        280.0715       1.508142E-04  temp
 stemp_0.04_236        278.2504       1.508142E-04  temp
 stemp_0.04_237        279.0692       1.508142E-04  temp
 stemp_0.04_238        277.4743       1.508142E-04  temp
 stemp_0.04_239        276.3279       1.508142E-04  temp
 stemp_0.04_240        277.8122       1.508142E-04  temp
 stemp_0.04_241        277.4016       1.508142E-04  temp
 stemp_0.04_242        277.7019       1.508142E-04  temp
 stemp_0.04_243        277.9725       1.508142E-04  temp
 stemp_0.04_244        277.4200       1.508142E-04  temp
 stemp_0.04_245        277.1065       1.508142E-04  temp
 stemp_0.04_246        274.0487       1.508142E-04  temp
 stemp_0.04_247        273.3824       1.508142E-04  temp
 stemp_0.04_248        273.2073       1.508142E-04  temp
 stemp_0.04_249        273.0319       1.508142E-04  temp
 stemp_0.04_250        272.9443       1.508142E-04  temp
 stemp_0.04_251        272.8745       1.508142E-04  temp
 stemp_0.04_252        274.4859       1.508142E-04  temp
 stemp_0.04_253        276.7833       1.508142E-04  temp
 stemp_0.04_254        277.7050       1.508142E-04  temp
 stemp_0.04_255        277.0358       1.508142E-04  temp
 stemp_0.04_256        274.3942       1.508142E-04  temp
 stemp_0.04_257        275.6476       1.508142E-04  temp
 stemp_0.04_258        275.7353       1.508142E-04  temp
 stemp_0.04_259        275.3442       1.508142E-04  temp
 stemp_0.04_260        274.3747       1.508142E-04  temp
 stemp_0.04_261        273.6306       1.508142E-04  temp
 stemp_0.04_262        274.1765       1.508142E-04  temp
 stemp_0.04_263        275.4722       1.508142E-04  temp
 stemp_0.04_264        275.7158       1.508142E-04  temp
 stemp_0.04_265        276.3663       1.508142E-04  temp
 stemp_0.04_266        275.7921       1.508142E-04  temp
 stemp_0.04_267        274.6260       1.508142E-04  temp
 stemp_0.04_268        274.7004       1.508142E-04  temp
 stemp_0.04_269        273.4325       1.508142E-04  temp
 stemp_0.04_270        274.4225       1.508142E-04  temp
 stemp_0.04_271        275.1828       1.508142E-04  temp
 stemp_0.04_272        276.0423       1.508142E-04  temp
 stemp_0.04_273        276.0309       1.508142E-04  temp
 stemp_0.04_274        273.4178       1.508142E-04  temp
 stemp_0.04_275        272.9731       1.508142E-04  temp
 stemp_0.04_276        272.7670       1.508142E-04  temp
 stemp_0.04_277        272.8664       1.508142E-04  temp
 stemp_0.04_278        273.8195       1.508142E-04  temp
 stemp_0.04_279        274.4464       1.508142E-04  temp
 stemp_0.04_280        274.1834       1.508142E-04  temp
 stemp_0.04_281        272.9104       1.508142E-04  temp
 stemp_0.04_282        272.5880       1.508142E-04  temp
 stemp_0.04_283        272.4173       1.508142E-04  temp
 stemp_0.04_284        272.2792       1.508142E-04  temp
 stemp_0.04_285        272.1701       1.508142E-04  temp
 stemp_0.04_286        272.2593       1.508142E-04  temp
 stemp_0.04_287        272.3251       1.508142E-04  temp
 stemp_0.04_288        272.3596       1.508142E-04  temp
 stemp_0.04_289        272.3656       1.508142E-04  temp
 stemp_0.04_290        272.3588       1.508142E-04  temp
 stemp_0.04_291        272.3409       1.508142E-04  temp
 stemp_0.04_292        272.3114       1.508142E-04  temp
 stemp_0.04_293        272.2824       1.508142E-04  temp
 stemp_0.04_294        272.2758       1.508142E-04  temp
 stemp_0.04_295        272.2682       1.508142E-04  temp
 stemp_0.04_296        272.2481       1.508142E-04  temp
 stemp_0.04_297        272.2392       1.508142E-04  temp
 stemp_0.04_298        272.2259       1.508142E-04  temp
 stemp_0.04_299        272.1912       1.508142E-04  temp
 stemp_0.04_300        272.1036       1.508142E-04  temp
 stemp_0.04_301        271.9636       1.508142E-04  temp
 stemp_0.04_302        271.8428       1.508142E-04  temp
 stemp_0.04_303        271.7433       1.508142E-04  temp
 stemp_0.04_304        271.6760       1.508142E-04  temp
 stemp_0.04_305        271.4038       1.508142E-04  temp
 stemp_0.04_306        271.1534       1.508142E-04  temp
 stemp_0.04_307        270.9238       1.508142E-04  temp
 stemp_0.04_308        270.7010       1.508142E-04  temp
 stemp_0.04_309        270.6944       1.508142E-04  temp
 stemp_0.04_310        270.4070       1.508142E-04  temp
 stemp_0.04_311        270.2943       1.508142E-04  temp
 stemp_0.04_312        270.0318       1.508142E-04  temp
 stemp_0.04_313        269.8657       1.508142E-04  temp
 stemp_0.04_314        269.6786       1.508142E-04  temp
 stemp_0.04_315        269.0687       1.508142E-04  temp
 stemp_0.04_316        268.2799       1.508142E-04  temp
 stemp_0.04_317        267.8038       1.508142E-04  temp
 stemp_0.04_318        267.5972       1.508142E-04  temp
 stemp_0.04_319        267.9785       1.508142E-04  temp
 stemp_0.04_320        267.9587       1.508142E-04  temp
 stemp_0.04_321        267.6832       1.508142E-04  temp
 stemp_0.04_322        266.6685       1.508142E-04  temp
 stemp_0.04_323        265.6763       1.508142E-04  temp
 stemp_0.04_324        264.8918       1.508142E-04  temp
 stemp_0.04_325        263.6574       1.508142E-04  temp
 stemp_0.04_326        262.5570       1.508142E-04  temp
 stemp_0.04_327        261.9758       1.508142E-04  temp
 stemp_0.04_328        261.8209       1.508142E-04  temp
 stemp_0.04_329        261.6778       1.508142E-04  temp
 stemp_0.04_330        262.4092       1.508142E-04  temp
 stemp_0.04_331        261.9119       1.508142E-04  temp
 stemp_0.04_332        262.1497       1.508142E-04  temp
 stemp_0.04_333        261.3581       1.508142E-04  temp
 stemp_0.04_334        261.0521       1.508142E-04  temp
 stemp_0.04_335        261.2303       1.508142E-04  temp
 stemp_0.04_336        261.0444       1.508142E-04  temp
 stemp_0.04_337        260.2969       1.508142E-04  temp
 stemp_0.04_338        260.3574       1.508142E-04  temp
 stemp_0.04_339        261.2616       1.508142E-04  temp
 stemp_0.04_340        261.0336       1.508142E-04  temp
 stemp_0.04_341        261.1640       1.508142E-04  temp
 stemp_0.04_342        261.8563       1.508142E-04  temp
 stemp_0.04_343        262.3330       1.508142E-04  temp
 stemp_0.04_344        262.8730       1.508142E-04  temp
 stemp_0.04_345        263.1165       1.508142E-04  temp
 stemp_0.04_346        263.5280       1.508142E-04  temp
 stemp_0.04_347        263.2105       1.508142E-04  temp
 stemp_0.04_348        260.9844       1.508142E-04  temp
 stemp_0.04_349        259.9772       1.508142E-04  temp
 stemp_0.04_350        259.9158       1.508142E-04  temp
 stemp_0.04_351        260.2722       1.508142E-04  temp
 stemp_0.04_352        259.1507       1.508142E-04  temp
 stemp_0.04_353        259.4396       1.508142E-04  temp
 stemp_0.04_354        261.1817       1.508142E-04  temp
 stemp_0.04_355        262.0089       1.508142E-04  temp
 stemp_0.04_356        260.7915       1.508142E-04  temp
 stemp_0.04_357        259.7500       1.508142E-04  temp
 stemp_0.04_358        260.2060       1.508142E-04  temp
 stemp_0.04_359        260.1716       1.508142E-04  temp
 stemp_0.04_360        260.4881       1.508142E-04  temp
 stemp_0.04_361        260.9700       1.508142E-04  temp
 stemp_0.04_362        260.4919       1.508142E-04  temp
 stemp_0.04_363        257.9597       1.508142E-04  temp
 stemp_0.04_364        258.2399       1.508142E-04  temp
 stemp_0.1_0           261.7462       1.508142E-04  temp
 stemp_0.1_1           261.7923       1.508142E-04  temp
 stemp_0.1_2           261.6776       1.508142E-04  temp
 stemp_0.1_3           261.7862       1.508142E-04  temp
 stemp_0.1_4           262.0412       1.508142E-04  temp
 stemp_0.1_5           261.8805       1.508142E-04  temp
 stemp_0.1_6           261.9686       1.508142E-04  temp
 stemp_0.1_7           261.5299       1.508142E-04  temp
 stemp_0.1_8           261.0011       1.508142E-04  temp
 stemp_0.1_9           261.4590       1.508142E-04  temp
 stemp_0.1_10          260.5126       1.508142E-04  temp
 stemp_0.1_11          259.2664       1.508142E-04  temp
 stemp_0.1_12          259.3933       1.508142E-04  temp
 stemp_0.1_13          259.3391       1.508142E-04  temp
 stemp_0.1_14          259.4340       1.508142E-04  temp
 stemp_0.1_15          258.4273       1.508142E-04  temp
 stemp_0.1_16          258.0144       1.508142E-04  temp
 stemp_0.1_17          258.2750       1.508142E-04  temp
 stemp_0.1_18          257.8973       1.508142E-04  temp
 stemp_0.1_19          258.0544       1.508142E-04  temp
 stemp_0.1_20          258.5848       1.508142E-04  temp
 stemp_0.1_21          259.1783       1.508142E-04  temp
 stemp_0.1_22          259.7551       1.508142E-04  temp
 stemp_0.1_23          260.4337       1.508142E-04  temp
 stemp_0.1_24          261.6626       1.508142E-04  temp
 stemp_0.1_25          262.6908       1.508142E-04  temp
 stemp_0.1_26          263.0232       1.508142E-04  temp
 stemp_0.1_27          263.5553       1.508142E-04  temp
 stemp_0.1_28          262.6482       1.508142E-04  temp
 stemp_0.1_29          261.7771       1.508142E-04  temp
 stemp_0.1_30          261.2356       1.508142E-04  temp
 stemp_0.1_31          260.9369       1.508142E-04  temp
 stemp_0.1_32          261.8363       1.508142E-04  temp
 stemp_0.1_33          262.5397       1.508142E-04  temp
 stemp_0.1_34          263.9179       1.508142E-04  temp
 stemp_0.1_35          264.9865       1.508142E-04  temp
 stemp_0.1_36          265.5226       1.508142E-04  temp
 stemp_0.1_37          263.2092       1.508142E-04  temp
 stemp_0.1_38          261.9290       1.508142E-04  temp
 stemp_0.1_39          261.1501       1.508142E-04  temp
 stemp_0.1_40          260.5415       1.508142E-04  temp
 stemp_0.1_41          260.1135       1.508142E-04  temp
 stemp_0.1_42          260.2058       1.508142E-04  temp
 stemp_0.1_43          260.7264       1.508142E-04  temp
 stemp_0.1_44          260.8663       1.508142E-04  temp
 stemp_0.1_45          261.7731       1.508142E-04  temp
 stemp_0.1_46          262.6658       1.508142E-04  temp
 stemp_0.1_47          263.1349       1.508142E-04  temp
 stemp_0.1_48          263.9545       1.508142E-04  temp
 stemp_0.1_49          265.4149       1.508142E-04  temp
 stemp_0.1_50          266.6756       1.508142E-04  temp
 stemp_0.1_51          266.0853       1.508142E-04  temp
 stemp_0.1_52          265.0247       1.508142E-04  temp
 stemp_0.1_53          264.1497       1.508142E-04  temp
 stemp_0.1_54          263.8250       1.508142E-04  temp
 stemp_0.1_55          263.5926       1.508142E-04  temp
 stemp_0.1_56          262.9817       1.508142E-04  temp
 stemp_0.1_57          262.3634       1.508142E-04  temp
 stemp_0.1_58          262.5219       1.508142E-04  temp
 stemp_0.1_59          262.1657       1.508142E-04  temp
 stemp_0.1_60          261.9403       1.508142E-04  temp
 stemp_0.1_61          261.7635       1.508142E-04  temp
 stemp_0.1_62          261.7265       1.508142E-04  temp
 stemp_0.1_63          261.9262       1.508142E-04  temp
 stemp_0.1_64          261.9695       1.508142E-04  temp
 stemp_0.1_65          261.9742       1.508142E-04  temp
 stemp_0.1_66          261.8637       1.508142E-04  temp
 stemp_0.1_67          261.8658       1.508142E-04  temp
 stemp_0.1_68          262.1525       1.508142E-04  temp
 stemp_0.1_69          262.5547       1.508142E-04  temp
 stemp_0.1_70          262.7196       1.508142E-04  temp
 stemp_0.1_71          262.9738       1.508142E-04  temp
 stemp_0.1_72          263.1189       1.508142E-04  temp
 stemp_0.1_73          263.2638       1.508142E-04  temp
 stemp_0.1_74          263.3201       1.508142E-04  temp
 stemp_0.1_75          263.3659       1.508142E-04  temp
 stemp_0.1_76          263.4208       1.508142E-04  temp
 stemp_0.1_77          263.6500       1.508142E-04  temp
 stemp_0.1_78          263.6351       1.508142E-04  temp
 stemp_0.1_79          263.7890       1.508142E-04  temp
 stemp_0.1_80          263.9870       1.508142E-04  temp
 stemp_0.1_81          264.1910       1.508142E-04  temp
 stemp_0.1_82          264.0501       1.508142E-04  temp
 stemp_0.1_83          263.6903       1.508142E-04  temp
 stemp_0.1_84          263.4071       1.508142E-04  temp
 stemp_0.1_85          263.7529       1.508142E-04  temp
 stemp_0.1_86          264.2153       1.508142E-04  temp
 stemp_0.1_87          264.5243       1.508142E-04  temp
 stemp_0.1_88          264.3687       1.508142E-04  temp
 stemp_0.1_89          264.2172       1.508142E-04  temp
 stemp_0.1_90          264.1725       1.508142E-04  temp
 stemp_0.1_91          264.4235       1.508142E-04  temp
 stemp_0.1_92          264.9365       1.508142E-04  temp
 stemp_0.1_93          265.0542       1.508142E-04  temp
 stemp_0.1_94          265.2103       1.508142E-04  temp
 stemp_0.1_95          265.6307       1.508142E-04  temp
 stemp_0.1_96          266.2606       1.508142E-04  temp
 stemp_0.1_97          266.6179       1.508142E-04  temp
 stemp_0.1_98          266.9557       1.508142E-04  temp
 stemp_0.1_99          266.9837       1.508142E-04  temp
 stemp_0.1_100         266.8491       1.508142E-04  temp
 stemp_0.1_101         266.6179       1.508142E-04  temp
 stemp_0.1_102         266.2935       1.508142E-04  temp
 stemp_0.1_103         266.2263       1.508142E-04  temp
 stemp_0.1_104         266.7016       1.508142E-04  temp
 stemp_0.1_105         266.8788       1.508142E-04  temp
 stemp_0.1_106         266.7827       1.508142E-04  temp
 stemp_0.1_107         267.0056       1.508142E-04  temp
 stemp_0.1_108         267.6078       1.508142E-04  temp
 stemp_0.1_109         267.3918       1.508142E-04  temp
 stemp_0.1_110         267.1087       1.508142E-04  temp
 stemp_0.1_111         267.1421       1.508142E-04  temp
 stemp_0.1_112         267.5465       1.508142E-04  temp
 stemp_0.1_113         268.6304       1.508142E-04  temp
 stemp_0.1_114         269.0075       1.508142E-04  temp
 stemp_0.1_115         269.1243       1.508142E-04  temp
 stemp_0.1_116         269.0668       1.508142E-04  temp
 stemp_0.1_117         268.9451       1.508142E-04  temp
 stemp_0.1_118         269.0924       1.508142E-04  temp
 stemp_0.1_119         269.1224       1.508142E-04  temp
 stemp_0.1_120         269.4112       1.508142E-04  temp
 stemp_0.1_121         271.2848       1.508142E-04  temp
 stemp_0.1_122         271.6104       1.508142E-04  temp
 stemp_0.1_123         271.4776       1.508142E-04  temp